
     RDKit          2D

  7  6  0  0  0  0  0  0  0  0999 V2000
    2.0625    0.7145    0.0000 C   0  0  0  0  0  0  0  0  0  0  0  0
    1.2375    0.7145    0.0000 C   0  0  0  0  0  0  0  0  0  0  0  0
    0.8250    1.4289    0.0000 N   0  0  0  0  0  0  0  0  0  0  0  0
    0.8250    0.0000    0.0000 C   0  0  0  0  0  0  0  0  0  0  0  0
    0.0000    0.0000    0.0000 O   0  0  0  0  0  0  0  0  0  0  0  0
    1.2375    2.1434    0.0000 R#  0  0  0  0  0  0  0  0  0  0  0  0
    1.2375   -0.7145    0.0000 R#  0  0  0  0  0  0  0  0  0  0  0  0
  2  1  1  1
  2  3  1  0
  3  6  1  0
  2  4  1  0
  4  7  1  0
  4  5  2  0
M  RGP  2   6   1   7   2
V    6 *
V    7 *
M  END
>  <m_name>  (1)
Alanine

>  <symbol>  (1)
A

>  <m_abbr>  (1)
A

>  <m_type>  (1)
aa

>  <m_subtype>  (1)
natural

>  <m_Rgroups>  (1)
H,OH,None,None

>  <m_RgroupIdx>  (1)
5,6,None,None

>  <m_attachmentPointIdx>  (1)
2,3,None,None

>  <natAnalog>  (1)
A

>  <pdbName>  (1)
ALA

$$$$

     RDKit          2D

  9  8  0  0  0  0  0  0  0  0999 V2000
    1.9520   -1.9520    0.0000 N   0  0  0  0  0  0  0  0  0  0  0  0
    1.9520   -1.1270    0.0000 C   0  0  0  0  0  0  0  0  0  0  0  0
    1.2375   -0.7145    0.0000 C   0  0  0  0  0  0  0  0  0  0  0  0
    1.2375    0.1105    0.0000 S   0  0  0  0  0  0  0  0  0  0  0  0
    2.6664   -0.7145    0.0000 C   0  0  0  0  0  0  0  0  0  0  0  0
    3.3809   -1.1270    0.0000 O   0  0  0  0  0  0  0  0  0  0  0  0
    2.6664   -2.3645    0.0000 R#  0  0  0  0  0  0  0  0  0  0  0  0
    0.5230    0.5230    0.0000 R#  0  0  0  0  0  0  0  0  0  0  0  0
    2.6664    0.1105    0.0000 R#  0  0  0  0  0  0  0  0  0  0  0  0
  7  1  1  0
  2  1  1  0
  2  3  1  1
  3  4  1  0
  4  8  1  0
  2  5  1  0
  5  9  1  0
  5  6  2  0
M  RGP  3   7   1   8   3   9   2
V    7 *
V    8 *
V    9 *
M  END
>  <m_name>  (2)
Cysteine

>  <symbol>  (2)
C

>  <m_abbr>  (2)
C

>  <m_type>  (2)
aa

>  <m_subtype>  (2)
natural

>  <m_Rgroups>  (2)
H,OH,H,None

>  <m_RgroupIdx>  (2)
6,8,7,None

>  <m_attachmentPointIdx>  (2)
0,4,3,None

>  <natAnalog>  (2)
C

>  <pdbName>  (2)
CYS

$$$$

     RDKit          2D

 10  9  0  0  0  0  0  0  0  0999 V2000
    1.9520   -1.9520    0.0000 N   0  0  0  0  0  0  0  0  0  0  0  0
    1.9520   -1.1270    0.0000 C   0  0  0  0  0  0  0  0  0  0  0  0
    1.2375   -0.7145    0.0000 C   0  0  0  0  0  0  0  0  0  0  0  0
    1.2375    0.1105    0.0000 C   0  0  0  0  0  0  0  0  0  0  0  0
    1.9520    0.5230    0.0000 O   0  0  0  0  0  0  0  0  0  0  0  0
    2.6664   -0.7145    0.0000 C   0  0  0  0  0  0  0  0  0  0  0  0
    3.3809   -1.1270    0.0000 O   0  0  0  0  0  0  0  0  0  0  0  0
    2.6664   -2.3645    0.0000 R#  0  0  0  0  0  0  0  0  0  0  0  0
    0.5230    0.5230    0.0000 R#  0  0  0  0  0  0  0  0  0  0  0  0
    2.6664    0.1105    0.0000 R#  0  0  0  0  0  0  0  0  0  0  0  0
  8  1  1  0
  2  1  1  0
  2  3  1  1
  3  4  1  0
  4  9  1  0
  4  5  2  0
  2  6  1  0
  6 10  1  0
  6  7  2  0
M  RGP  3   8   1   9   3  10   2
V    8 *
V    9 *
V   10 *
M  END
>  <m_name>  (3)
Aspartic acid

>  <symbol>  (3)
D

>  <m_abbr>  (3)
D

>  <m_type>  (3)
aa

>  <m_subtype>  (3)
natural

>  <m_Rgroups>  (3)
H,OH,OH,None

>  <m_RgroupIdx>  (3)
7,9,8,None

>  <m_attachmentPointIdx>  (3)
0,5,3,None

>  <natAnalog>  (3)
D

>  <pdbName>  (3)
ASP

$$$$

     RDKit          2D

 11 10  0  0  0  0  0  0  0  0999 V2000
    3.7125    3.5724    0.0000 N   0  0  0  0  0  0  0  0  0  0  0  0
    3.3000    2.8579    0.0000 C   0  0  0  0  0  0  0  0  0  0  0  0
    2.4750    2.8579    0.0000 C   0  0  0  0  0  0  0  0  0  0  0  0
    2.0625    2.1434    0.0000 C   0  0  0  0  0  0  0  0  0  0  0  0
    1.2375    2.1434    0.0000 C   0  0  0  0  0  0  0  0  0  0  0  0
    0.8250    2.8579    0.0000 O   0  0  0  0  0  0  0  0  0  0  0  0
    3.7125    2.1434    0.0000 C   0  0  0  0  0  0  0  0  0  0  0  0
    3.3000    1.4289    0.0000 O   0  0  0  0  0  0  0  0  0  0  0  0
    4.5375    3.5724    0.0000 R#  0  0  0  0  0  0  0  0  0  0  0  0
    0.8250    1.4289    0.0000 R#  0  0  0  0  0  0  0  0  0  0  0  0
    4.5375    2.1434    0.0000 R#  0  0  0  0  0  0  0  0  0  0  0  0
  9  1  1  0
  2  1  1  0
  2  3  1  6
  3  4  1  0
  4  5  1  0
  5 10  1  0
  5  6  2  0
  2  7  1  0
  7 11  1  0
  7  8  2  0
M  RGP  3   9   1  10   3  11   2
V    9 *
V   10 *
V   11 *
M  END
>  <m_name>  (4)
Glutamic acid

>  <symbol>  (4)
E

>  <m_abbr>  (4)
E

>  <m_type>  (4)
aa

>  <m_subtype>  (4)
natural

>  <m_Rgroups>  (4)
H,OH,OH,None

>  <m_RgroupIdx>  (4)
8,10,9,None

>  <m_attachmentPointIdx>  (4)
0,6,4,None

>  <natAnalog>  (4)
E

>  <pdbName>  (4)
GLU

$$$$

     RDKit          2D

 13 13  0  0  0  0  0  0  0  0999 V2000
    0.0000    3.3000    0.0000 N   0  0  0  0  0  0  0  0  0  0  0  0
    0.0000    2.4750    0.0000 C   0  0  0  0  0  0  0  0  0  0  0  0
    0.7145    2.0625    0.0000 C   0  0  0  0  0  0  0  0  0  0  0  0
    0.7145    1.2375    0.0000 C   0  0  0  0  0  0  0  0  0  0  0  0
    1.4289    0.8250    0.0000 C   0  0  0  0  0  0  0  0  0  0  0  0
    1.4289    0.0000    0.0000 C   0  0  0  0  0  0  0  0  0  0  0  0
    0.7145   -0.4125    0.0000 C   0  0  0  0  0  0  0  0  0  0  0  0
    0.0000    0.0000    0.0000 C   0  0  0  0  0  0  0  0  0  0  0  0
    0.0000    0.8250    0.0000 C   0  0  0  0  0  0  0  0  0  0  0  0
   -0.7145    2.0625    0.0000 C   0  0  0  0  0  0  0  0  0  0  0  0
   -1.4289    2.4750    0.0000 O   0  0  0  0  0  0  0  0  0  0  0  0
   -0.7145    3.7125    0.0000 R#  0  0  0  0  0  0  0  0  0  0  0  0
   -0.7145    1.2375    0.0000 R#  0  0  0  0  0  0  0  0  0  0  0  0
 12  1  1  0
  2  1  1  0
  2  3  1  1
  3  4  1  0
  4  5  2  0
  5  6  1  0
  6  7  2  0
  7  8  1  0
  8  9  2  0
  4  9  1  0
  2 10  1  0
 10 13  1  0
 10 11  2  0
M  RGP  2  12   1  13   2
V   12 *
V   13 *
M  END
>  <m_name>  (5)
Phenylalanine

>  <symbol>  (5)
F

>  <m_abbr>  (5)
F

>  <m_type>  (5)
aa

>  <m_subtype>  (5)
natural

>  <m_Rgroups>  (5)
H,OH,None,None

>  <m_RgroupIdx>  (5)
11,12,None,None

>  <m_attachmentPointIdx>  (5)
0,9,None,None

>  <natAnalog>  (5)
F

>  <pdbName>  (5)
PHE

$$$$

     RDKit          2D

  6  5  0  0  0  0  0  0  0  0999 V2000
    0.8250    1.4289    0.0000 N   0  0  0  0  0  0  0  0  0  0  0  0
    1.2375    0.7145    0.0000 C   0  0  0  0  0  0  0  0  0  0  0  0
    0.8250    0.0000    0.0000 C   0  0  0  0  0  0  0  0  0  0  0  0
    0.0000    0.0000    0.0000 O   0  0  0  0  0  0  0  0  0  0  0  0
    1.2375    2.1434    0.0000 R#  0  0  0  0  0  0  0  0  0  0  0  0
    1.2375   -0.7145    0.0000 R#  0  0  0  0  0  0  0  0  0  0  0  0
  5  1  1  0
  1  2  1  0
  2  3  1  0
  3  6  1  0
  3  4  2  0
M  RGP  2   5   1   6   2
V    5 *
V    6 *
M  END
>  <m_name>  (6)
Glycine

>  <symbol>  (6)
G

>  <m_abbr>  (6)
G

>  <m_type>  (6)
aa

>  <m_subtype>  (6)
natural

>  <m_Rgroups>  (6)
H,OH,None,None

>  <m_RgroupIdx>  (6)
4,5,None,None

>  <m_attachmentPointIdx>  (6)
0,2,None,None

>  <natAnalog>  (6)
G

>  <pdbName>  (6)
GLY

$$$$

     RDKit          2D

 12 12  0  0  0  0  0  0  0  0999 V2000
   -0.1467    3.1768    0.0000 N   0  0  0  0  0  0  0  0  0  0  0  0
   -0.1467    2.3518    0.0000 C   0  0  0  0  0  0  0  0  0  0  0  0
    0.5678    1.9393    0.0000 C   0  0  0  0  0  0  0  0  0  0  0  0
    0.5678    1.1143    0.0000 C   0  0  0  0  0  0  0  0  0  0  0  0
    1.2352    0.6294    0.0000 C   0  0  0  0  0  0  0  0  0  0  0  0
    0.9803   -0.1553    0.0000 N   0  0  0  0  0  0  0  0  0  0  0  0
    0.1553   -0.1553    0.0000 C   0  0  0  0  0  0  0  0  0  0  0  0
   -0.0997    0.6294    0.0000 N   0  0  0  0  0  0  0  0  0  0  0  0
   -0.8612    1.9393    0.0000 C   0  0  0  0  0  0  0  0  0  0  0  0
   -1.5757    2.3518    0.0000 O   0  0  0  0  0  0  0  0  0  0  0  0
   -0.8612    3.5893    0.0000 R#  0  0  0  0  0  0  0  0  0  0  0  0
   -0.8612    1.1143    0.0000 R#  0  0  0  0  0  0  0  0  0  0  0  0
 11  1  1  0
  2  1  1  0
  2  3  1  1
  3  4  1  0
  4  5  2  0
  5  6  1  0
  6  7  1  0
  7  8  2  0
  4  8  1  0
  2  9  1  0
  9 12  1  0
  9 10  2  0
M  RGP  2  11   1  12   2
V   11 *
V   12 *
M  END
>  <m_name>  (7)
Histidine

>  <symbol>  (7)
H

>  <m_abbr>  (7)
H

>  <m_type>  (7)
aa

>  <m_subtype>  (7)
natural

>  <m_Rgroups>  (7)
H,OH,None,None

>  <m_RgroupIdx>  (7)
10,11,None,None

>  <m_attachmentPointIdx>  (7)
0,8,None,None

>  <natAnalog>  (7)
H

>  <pdbName>  (7)
HIS

$$$$

     RDKit          2D

 10  9  0  0  0  0  0  0  0  0999 V2000
    0.5230    0.5230    0.0000 C   0  0  0  0  0  0  0  0  0  0  0  0
    1.2375    0.1105    0.0000 C   0  0  0  0  0  0  0  0  0  0  0  0
    1.2375   -0.7145    0.0000 C   0  0  0  0  0  0  0  0  0  0  0  0
    0.5230   -1.1270    0.0000 C   0  0  0  0  0  0  0  0  0  0  0  0
    1.9520   -1.1270    0.0000 C   0  0  0  0  0  0  0  0  0  0  0  0
    1.9520   -1.9520    0.0000 N   0  0  0  0  0  0  0  0  0  0  0  0
    2.6664   -0.7145    0.0000 C   0  0  0  0  0  0  0  0  0  0  0  0
    3.3809   -1.1270    0.0000 O   0  0  0  0  0  0  0  0  0  0  0  0
    2.6664   -2.3645    0.0000 R#  0  0  0  0  0  0  0  0  0  0  0  0
    2.6664    0.1105    0.0000 R#  0  0  0  0  0  0  0  0  0  0  0  0
  1  2  1  0
  3  2  1  0
  3  4  1  1
  3  5  1  0
  5  6  1  1
  6  9  1  0
  5  7  1  0
  7 10  1  0
  7  8  2  0
M  RGP  2   9   1  10   2
V    9 *
V   10 *
M  END
>  <m_name>  (8)
Isoleucine

>  <symbol>  (8)
I

>  <m_abbr>  (8)
I

>  <m_type>  (8)
aa

>  <m_subtype>  (8)
natural

>  <m_Rgroups>  (8)
H,OH,None,None

>  <m_RgroupIdx>  (8)
8,9,None,None

>  <m_attachmentPointIdx>  (8)
5,6,None,None

>  <natAnalog>  (8)
I

>  <pdbName>  (8)
ILE

$$$$

     RDKit          2D

 12 11  0  0  0  0  0  0  0  0999 V2000
    5.2882    4.9755    0.0000 N   0  0  0  0  0  0  0  0  0  0  0  0
    4.7481    4.3519    0.0000 C   0  0  0  0  0  0  0  0  0  0  0  0
    3.9379    4.5078    0.0000 C   0  0  0  0  0  0  0  0  0  0  0  0
    3.3979    3.8842    0.0000 C   0  0  0  0  0  0  0  0  0  0  0  0
    2.5877    4.0401    0.0000 C   0  0  0  0  0  0  0  0  0  0  0  0
    2.0476    3.4164    0.0000 C   0  0  0  0  0  0  0  0  0  0  0  0
    1.2375    3.5724    0.0000 N   0  0  0  0  0  0  0  0  0  0  0  0
    5.0181    3.5724    0.0000 C   0  0  0  0  0  0  0  0  0  0  0  0
    4.4780    2.9487    0.0000 O   0  0  0  0  0  0  0  0  0  0  0  0
    6.0983    4.8196    0.0000 R#  0  0  0  0  0  0  0  0  0  0  0  0
    0.6974    2.9487    0.0000 R#  0  0  0  0  0  0  0  0  0  0  0  0
    5.8283    3.4164    0.0000 R#  0  0  0  0  0  0  0  0  0  0  0  0
 10  1  1  0
  2  1  1  0
  2  3  1  6
  3  4  1  0
  4  5  1  0
  5  6  1  0
  6  7  1  0
  7 11  1  0
  2  8  1  0
  8 12  1  0
  8  9  2  0
M  RGP  3  10   1  11   3  12   2
V   10 *
V   11 *
V   12 *
M  END
>  <m_name>  (9)
Lysine

>  <symbol>  (9)
K

>  <m_abbr>  (9)
K

>  <m_type>  (9)
aa

>  <m_subtype>  (9)
natural

>  <m_Rgroups>  (9)
H,OH,H,None

>  <m_RgroupIdx>  (9)
9,11,10,None

>  <m_attachmentPointIdx>  (9)
0,7,6,None

>  <natAnalog>  (9)
K

>  <pdbName>  (9)
LYS

$$$$

     RDKit          2D

 10  9  0  0  0  0  0  0  0  0999 V2000
    0.5230    0.5230    0.0000 C   0  0  0  0  0  0  0  0  0  0  0  0
    1.2375    0.1105    0.0000 C   0  0  0  0  0  0  0  0  0  0  0  0
    1.9520    0.5230    0.0000 C   0  0  0  0  0  0  0  0  0  0  0  0
    1.2375   -0.7145    0.0000 C   0  0  0  0  0  0  0  0  0  0  0  0
    1.9520   -1.1270    0.0000 C   0  0  0  0  0  0  0  0  0  0  0  0
    1.9520   -1.9520    0.0000 N   0  0  0  0  0  0  0  0  0  0  0  0
    2.6664   -0.7145    0.0000 C   0  0  0  0  0  0  0  0  0  0  0  0
    3.3809   -1.1270    0.0000 O   0  0  0  0  0  0  0  0  0  0  0  0
    2.6664   -2.3645    0.0000 R#  0  0  0  0  0  0  0  0  0  0  0  0
    2.6664    0.1105    0.0000 R#  0  0  0  0  0  0  0  0  0  0  0  0
  1  2  1  0
  2  3  1  0
  2  4  1  0
  5  4  1  1
  5  6  1  0
  6  9  1  0
  5  7  1  0
  7 10  1  0
  7  8  2  0
M  RGP  2   9   1  10   2
V    9 *
V   10 *
M  END
>  <m_name>  (10)
Leucine

>  <symbol>  (10)
L

>  <m_abbr>  (10)
L

>  <m_type>  (10)
aa

>  <m_subtype>  (10)
natural

>  <m_Rgroups>  (10)
H,OH,None,None

>  <m_RgroupIdx>  (10)
8,9,None,None

>  <m_attachmentPointIdx>  (10)
5,6,None,None

>  <natAnalog>  (10)
L

>  <pdbName>  (10)
LEU

$$$$

     RDKit          2D

 10  9  0  0  0  0  0  0  0  0999 V2000
    0.8250   -1.4289    0.0000 C   0  0  0  0  0  0  0  0  0  0  0  0
    1.2375   -2.1434    0.0000 S   0  0  0  0  0  0  0  0  0  0  0  0
    2.0625   -2.1434    0.0000 C   0  0  0  0  0  0  0  0  0  0  0  0
    2.4750   -2.8579    0.0000 C   0  0  0  0  0  0  0  0  0  0  0  0
    3.3000   -2.8579    0.0000 C   0  0  0  0  0  0  0  0  0  0  0  0
    3.7125   -3.5724    0.0000 N   0  0  0  0  0  0  0  0  0  0  0  0
    3.7125   -2.1434    0.0000 C   0  0  0  0  0  0  0  0  0  0  0  0
    4.5375   -2.1434    0.0000 O   0  0  0  0  0  0  0  0  0  0  0  0
    4.5375   -3.5724    0.0000 R#  0  0  0  0  0  0  0  0  0  0  0  0
    3.3000   -1.4289    0.0000 R#  0  0  0  0  0  0  0  0  0  0  0  0
  1  2  1  0
  2  3  1  0
  3  4  1  0
  5  4  1  1
  5  6  1  0
  6  9  1  0
  5  7  1  0
  7 10  1  0
  7  8  2  0
M  RGP  2   9   1  10   2
V    9 *
V   10 *
M  END
>  <m_name>  (11)
Methionine

>  <symbol>  (11)
M

>  <m_abbr>  (11)
M

>  <m_type>  (11)
aa

>  <m_subtype>  (11)
natural

>  <m_Rgroups>  (11)
H,OH,None,None

>  <m_RgroupIdx>  (11)
8,9,None,None

>  <m_attachmentPointIdx>  (11)
5,6,None,None

>  <natAnalog>  (11)
M

>  <pdbName>  (11)
MET

$$$$

     RDKit          2D

 10  9  0  0  0  0  0  0  0  0999 V2000
    0.5230    0.5230    0.0000 N   0  0  0  0  0  0  0  0  0  0  0  0
    1.2375    0.1105    0.0000 C   0  0  0  0  0  0  0  0  0  0  0  0
    1.9520    0.5230    0.0000 O   0  0  0  0  0  0  0  0  0  0  0  0
    1.2375   -0.7145    0.0000 C   0  0  0  0  0  0  0  0  0  0  0  0
    1.9520   -1.1270    0.0000 C   0  0  0  0  0  0  0  0  0  0  0  0
    1.9520   -1.9520    0.0000 N   0  0  0  0  0  0  0  0  0  0  0  0
    2.6664   -0.7145    0.0000 C   0  0  0  0  0  0  0  0  0  0  0  0
    3.3809   -1.1270    0.0000 O   0  0  0  0  0  0  0  0  0  0  0  0
    2.6664   -2.3645    0.0000 R#  0  0  0  0  0  0  0  0  0  0  0  0
    2.6664    0.1105    0.0000 R#  0  0  0  0  0  0  0  0  0  0  0  0
  1  2  1  0
  2  3  2  0
  2  4  1  0
  5  4  1  1
  5  6  1  0
  6  9  1  0
  5  7  1  0
  7 10  1  0
  7  8  2  0
M  RGP  2   9   1  10   2
V    9 *
V   10 *
M  END
>  <m_name>  (12)
Asparagine

>  <symbol>  (12)
N

>  <m_abbr>  (12)
N

>  <m_type>  (12)
aa

>  <m_subtype>  (12)
natural

>  <m_Rgroups>  (12)
H,OH,None,None

>  <m_RgroupIdx>  (12)
8,9,None,None

>  <m_attachmentPointIdx>  (12)
5,6,None,None

>  <natAnalog>  (12)
N

>  <pdbName>  (12)
ASN

$$$$

     RDKit          2D

  9  9  0  0  0  0  0  0  0  0999 V2000
    0.5678    1.1143    0.0000 N   0  0  0  0  0  0  0  0  0  0  0  0
    1.2352    0.6294    0.0000 C   0  0  0  0  0  0  0  0  0  0  0  0
    0.9803   -0.1553    0.0000 C   0  0  0  0  0  0  0  0  0  0  0  0
    0.1553   -0.1553    0.0000 C   0  0  0  0  0  0  0  0  0  0  0  0
   -0.0997    0.6294    0.0000 C   0  0  0  0  0  0  0  0  0  0  0  0
   -0.8843    0.8843    0.0000 C   0  0  0  0  0  0  0  0  0  0  0  0
   -1.0558    1.6913    0.0000 O   0  0  0  0  0  0  0  0  0  0  0  0
    0.5678    1.9393    0.0000 R#  0  0  0  0  0  0  0  0  0  0  0  0
   -1.4974    0.3323    0.0000 R#  0  0  0  0  0  0  0  0  0  0  0  0
  8  1  1  0
  1  2  1  0
  2  3  1  0
  3  4  1  0
  5  4  1  0
  5  1  1  0
  5  6  1  1
  6  9  1  0
  6  7  2  0
M  RGP  2   8   1   9   2
V    8 *
V    9 *
M  END
>  <m_name>  (13)
Proline

>  <symbol>  (13)
P

>  <m_abbr>  (13)
P

>  <m_type>  (13)
aa

>  <m_subtype>  (13)
natural

>  <m_Rgroups>  (13)
H,OH,None,None

>  <m_RgroupIdx>  (13)
7,8,None,None

>  <m_attachmentPointIdx>  (13)
0,5,None,None

>  <natAnalog>  (13)
P

>  <pdbName>  (13)
PRO

$$$$

     RDKit          2D

 11 10  0  0  0  0  0  0  0  0999 V2000
    0.8250   -1.4289    0.0000 N   0  0  0  0  0  0  0  0  0  0  0  0
    1.2375   -2.1434    0.0000 C   0  0  0  0  0  0  0  0  0  0  0  0
    0.8250   -2.8579    0.0000 O   0  0  0  0  0  0  0  0  0  0  0  0
    2.0625   -2.1434    0.0000 C   0  0  0  0  0  0  0  0  0  0  0  0
    2.4750   -2.8579    0.0000 C   0  0  0  0  0  0  0  0  0  0  0  0
    3.3000   -2.8579    0.0000 C   0  0  0  0  0  0  0  0  0  0  0  0
    3.7125   -3.5724    0.0000 N   0  0  0  0  0  0  0  0  0  0  0  0
    3.7125   -2.1434    0.0000 C   0  0  0  0  0  0  0  0  0  0  0  0
    4.5375   -2.1434    0.0000 O   0  0  0  0  0  0  0  0  0  0  0  0
    4.5375   -3.5724    0.0000 R#  0  0  0  0  0  0  0  0  0  0  0  0
    3.3000   -1.4289    0.0000 R#  0  0  0  0  0  0  0  0  0  0  0  0
  1  2  1  0
  2  3  2  0
  2  4  1  0
  4  5  1  0
  6  5  1  1
  6  7  1  0
  7 10  1  0
  6  8  1  0
  8 11  1  0
  8  9  2  0
M  RGP  2  10   1  11   2
V   10 *
V   11 *
M  END
>  <m_name>  (14)
Glutamine

>  <symbol>  (14)
Q

>  <m_abbr>  (14)
Q

>  <m_type>  (14)
aa

>  <m_subtype>  (14)
natural

>  <m_Rgroups>  (14)
H,OH,None,None

>  <m_RgroupIdx>  (14)
9,10,None,None

>  <m_attachmentPointIdx>  (14)
6,7,None,None

>  <natAnalog>  (14)
Q

>  <pdbName>  (14)
GLN

$$$$

     RDKit          2D

 13 12  0  0  0  0  0  0  0  0999 V2000
    0.6974   -2.9487    0.0000 N   0  0  0  0  0  0  0  0  0  0  0  0
    1.2375   -3.5724    0.0000 C   0  0  0  0  0  0  0  0  0  0  0  0
    0.9675   -4.3519    0.0000 N   0  0  0  0  0  0  0  0  0  0  0  0
    2.0476   -3.4164    0.0000 N   0  0  0  0  0  0  0  0  0  0  0  0
    2.5877   -4.0401    0.0000 C   0  0  0  0  0  0  0  0  0  0  0  0
    3.3979   -3.8842    0.0000 C   0  0  0  0  0  0  0  0  0  0  0  0
    3.9379   -4.5078    0.0000 C   0  0  0  0  0  0  0  0  0  0  0  0
    4.7481   -4.3519    0.0000 C   0  0  0  0  0  0  0  0  0  0  0  0
    5.2882   -4.9755    0.0000 N   0  0  0  0  0  0  0  0  0  0  0  0
    5.0181   -3.5724    0.0000 C   0  0  0  0  0  0  0  0  0  0  0  0
    5.8283   -3.4164    0.0000 O   0  0  0  0  0  0  0  0  0  0  0  0
    6.0983   -4.8196    0.0000 R#  0  0  0  0  0  0  0  0  0  0  0  0
    4.4780   -2.9487    0.0000 R#  0  0  0  0  0  0  0  0  0  0  0  0
  1  2  1  0
  2  3  2  0
  2  4  1  0
  4  5  1  0
  5  6  1  0
  6  7  1  0
  8  7  1  1
  8  9  1  0
  9 12  1  0
  8 10  1  0
 10 13  1  0
 10 11  2  0
M  RGP  2  12   1  13   2
V   12 *
V   13 *
M  END
>  <m_name>  (15)
Arginine

>  <symbol>  (15)
R

>  <m_abbr>  (15)
R

>  <m_type>  (15)
aa

>  <m_subtype>  (15)
natural

>  <m_Rgroups>  (15)
H,OH,None,None

>  <m_RgroupIdx>  (15)
11,12,None,None

>  <m_attachmentPointIdx>  (15)
8,9,None,None

>  <natAnalog>  (15)
R

>  <pdbName>  (15)
ARG

$$$$

     RDKit          2D

  8  7  0  0  0  0  0  0  0  0999 V2000
    0.0000   -1.4289    0.0000 O   0  0  0  0  0  0  0  0  0  0  0  0
    0.8250   -1.4289    0.0000 C   0  0  0  0  0  0  0  0  0  0  0  0
    1.2375   -0.7145    0.0000 C   0  0  0  0  0  0  0  0  0  0  0  0
    2.0625   -0.7145    0.0000 N   0  0  0  0  0  0  0  0  0  0  0  0
    0.8250    0.0000    0.0000 C   0  0  0  0  0  0  0  0  0  0  0  0
    0.0000    0.0000    0.0000 O   0  0  0  0  0  0  0  0  0  0  0  0
    2.4750    0.0000    0.0000 R#  0  0  0  0  0  0  0  0  0  0  0  0
    1.2375    0.7145    0.0000 R#  0  0  0  0  0  0  0  0  0  0  0  0
  1  2  1  0
  3  2  1  1
  3  4  1  0
  4  7  1  0
  3  5  1  0
  5  8  1  0
  5  6  2  0
M  RGP  2   7   1   8   2
V    7 *
V    8 *
M  END
>  <m_name>  (16)
Serine

>  <symbol>  (16)
S

>  <m_abbr>  (16)
S

>  <m_type>  (16)
aa

>  <m_subtype>  (16)
natural

>  <m_Rgroups>  (16)
H,OH,None,None

>  <m_RgroupIdx>  (16)
6,7,None,None

>  <m_attachmentPointIdx>  (16)
3,4,None,None

>  <natAnalog>  (16)
S

>  <pdbName>  (16)
SER

$$$$

     RDKit          2D

  9  8  0  0  0  0  0  0  0  0999 V2000
    0.0000   -1.4289    0.0000 C   0  0  0  0  0  0  0  0  0  0  0  0
    0.8250   -1.4289    0.0000 C   0  0  0  0  0  0  0  0  0  0  0  0
    1.2375   -2.1434    0.0000 O   0  0  0  0  0  0  0  0  0  0  0  0
    1.2375   -0.7145    0.0000 C   0  0  0  0  0  0  0  0  0  0  0  0
    2.0625   -0.7145    0.0000 N   0  0  0  0  0  0  0  0  0  0  0  0
    0.8250    0.0000    0.0000 C   0  0  0  0  0  0  0  0  0  0  0  0
    0.0000    0.0000    0.0000 O   0  0  0  0  0  0  0  0  0  0  0  0
    2.4750    0.0000    0.0000 R#  0  0  0  0  0  0  0  0  0  0  0  0
    1.2375    0.7145    0.0000 R#  0  0  0  0  0  0  0  0  0  0  0  0
  2  1  1  6
  2  3  1  0
  2  4  1  0
  4  5  1  1
  5  8  1  0
  4  6  1  0
  6  9  1  0
  6  7  2  0
M  RGP  2   8   1   9   2
V    8 *
V    9 *
M  END
>  <m_name>  (17)
Threonine

>  <symbol>  (17)
T

>  <m_abbr>  (17)
T

>  <m_type>  (17)
aa

>  <m_subtype>  (17)
natural

>  <m_Rgroups>  (17)
H,OH,None,None

>  <m_RgroupIdx>  (17)
7,8,None,None

>  <m_attachmentPointIdx>  (17)
4,5,None,None

>  <natAnalog>  (17)
T

>  <pdbName>  (17)
THR

$$$$

     RDKit          2D

  9  8  0  0  0  0  0  0  0  0999 V2000
    0.0000   -1.4289    0.0000 C   0  0  0  0  0  0  0  0  0  0  0  0
    0.8250   -1.4289    0.0000 C   0  0  0  0  0  0  0  0  0  0  0  0
    1.2375   -2.1434    0.0000 C   0  0  0  0  0  0  0  0  0  0  0  0
    1.2375   -0.7145    0.0000 C   0  0  0  0  0  0  0  0  0  0  0  0
    2.0625   -0.7145    0.0000 N   0  0  0  0  0  0  0  0  0  0  0  0
    0.8250    0.0000    0.0000 C   0  0  0  0  0  0  0  0  0  0  0  0
    0.0000    0.0000    0.0000 O   0  0  0  0  0  0  0  0  0  0  0  0
    2.4750    0.0000    0.0000 R#  0  0  0  0  0  0  0  0  0  0  0  0
    1.2375    0.7145    0.0000 R#  0  0  0  0  0  0  0  0  0  0  0  0
  1  2  1  0
  2  3  1  0
  4  2  1  0
  4  5  1  1
  5  8  1  0
  4  6  1  0
  6  9  1  0
  6  7  2  0
M  RGP  2   8   1   9   2
V    8 *
V    9 *
M  END
>  <m_name>  (18)
Valine

>  <symbol>  (18)
V

>  <m_abbr>  (18)
V

>  <m_type>  (18)
aa

>  <m_subtype>  (18)
natural

>  <m_Rgroups>  (18)
H,OH,None,None

>  <m_RgroupIdx>  (18)
7,8,None,None

>  <m_attachmentPointIdx>  (18)
4,5,None,None

>  <natAnalog>  (18)
V

>  <pdbName>  (18)
VAL

$$$$

     RDKit          2D

 16 17  0  0  0  0  0  0  0  0999 V2000
   -0.1781   -3.1062    0.0000 N   0  0  0  0  0  0  0  0  0  0  0  0
    0.0768   -2.3215    0.0000 C   0  0  0  0  0  0  0  0  0  0  0  0
    0.8838   -2.1500    0.0000 C   0  0  0  0  0  0  0  0  0  0  0  0
    1.1387   -1.3654    0.0000 C   0  0  0  0  0  0  0  0  0  0  0  0
    0.6538   -0.6979    0.0000 C   0  0  0  0  0  0  0  0  0  0  0  0
    1.1387   -0.0305    0.0000 N   0  0  0  0  0  0  0  0  0  0  0  0
    1.9233   -0.2854    0.0000 C   0  0  0  0  0  0  0  0  0  0  0  0
    2.6378    0.1271    0.0000 C   0  0  0  0  0  0  0  0  0  0  0  0
    3.3523   -0.2854    0.0000 C   0  0  0  0  0  0  0  0  0  0  0  0
    3.3523   -1.1104    0.0000 C   0  0  0  0  0  0  0  0  0  0  0  0
    2.6378   -1.5229    0.0000 C   0  0  0  0  0  0  0  0  0  0  0  0
    1.9233   -1.1104    0.0000 C   0  0  0  0  0  0  0  0  0  0  0  0
   -0.4752   -1.7084    0.0000 C   0  0  0  0  0  0  0  0  0  0  0  0
   -1.2822   -1.8800    0.0000 O   0  0  0  0  0  0  0  0  0  0  0  0
   -0.9851   -3.2777    0.0000 R#  0  0  0  0  0  0  0  0  0  0  0  0
   -0.2203   -0.9238    0.0000 R#  0  0  0  0  0  0  0  0  0  0  0  0
 15  1  1  0
  2  1  1  0
  2  3  1  6
  3  4  1  0
  4  5  2  0
  5  6  1  0
  6  7  1  0
  7  8  2  0
  8  9  1  0
  9 10  2  0
 10 11  1  0
 11 12  2  0
  4 12  1  0
  7 12  1  0
  2 13  1  0
 13 16  1  0
 13 14  2  0
M  RGP  2  15   1  16   2
V   15 *
V   16 *
M  END
>  <m_name>  (19)
Tryptophan

>  <symbol>  (19)
W

>  <m_abbr>  (19)
W

>  <m_type>  (19)
aa

>  <m_subtype>  (19)
natural

>  <m_Rgroups>  (19)
H,OH,None,None

>  <m_RgroupIdx>  (19)
14,15,None,None

>  <m_attachmentPointIdx>  (19)
0,12,None,None

>  <natAnalog>  (19)
W

>  <pdbName>  (19)
TRP

$$$$

     RDKit          2D

 14 14  0  0  0  0  0  0  0  0999 V2000
    0.7145    2.0625    0.0000 O   0  0  0  0  0  0  0  0  0  0  0  0
    0.7145    1.2375    0.0000 C   0  0  0  0  0  0  0  0  0  0  0  0
    1.4289    0.8250    0.0000 C   0  0  0  0  0  0  0  0  0  0  0  0
    1.4289    0.0000    0.0000 C   0  0  0  0  0  0  0  0  0  0  0  0
    0.7145   -0.4125    0.0000 C   0  0  0  0  0  0  0  0  0  0  0  0
    0.7145   -1.2375    0.0000 C   0  0  0  0  0  0  0  0  0  0  0  0
    1.4289   -1.6500    0.0000 C   0  0  0  0  0  0  0  0  0  0  0  0
    1.4289   -2.4750    0.0000 N   0  0  0  0  0  0  0  0  0  0  0  0
    2.1434   -1.2375    0.0000 C   0  0  0  0  0  0  0  0  0  0  0  0
    2.1434   -0.4125    0.0000 O   0  0  0  0  0  0  0  0  0  0  0  0
    0.0000    0.0000    0.0000 C   0  0  0  0  0  0  0  0  0  0  0  0
    0.0000    0.8250    0.0000 C   0  0  0  0  0  0  0  0  0  0  0  0
    2.1434   -2.8875    0.0000 R#  0  0  0  0  0  0  0  0  0  0  0  0
    2.8579   -1.6500    0.0000 R#  0  0  0  0  0  0  0  0  0  0  0  0
  1  2  1  0
  2  3  2  0
  3  4  1  0
  4  5  2  0
  5  6  1  0
  7  6  1  1
  7  8  1  0
  8 13  1  0
  7  9  1  0
  9 14  1  0
  9 10  2  0
  5 11  1  0
 11 12  2  0
  2 12  1  0
M  RGP  2  13   1  14   2
V   13 *
V   14 *
M  END
>  <m_name>  (20)
Tyrosine

>  <symbol>  (20)
Y

>  <m_abbr>  (20)
Y

>  <m_type>  (20)
aa

>  <m_subtype>  (20)
natural

>  <m_Rgroups>  (20)
H,OH,None,None

>  <m_RgroupIdx>  (20)
12,13,None,None

>  <m_attachmentPointIdx>  (20)
7,8,None,None

>  <natAnalog>  (20)
Y

>  <pdbName>  (20)
TYR

$$$$

     RDKit          2D

  7  6  0  0  0  0  0  0  0  0999 V2000
    2.0625    0.7145    0.0000 C   0  0  0  0  0  0  0  0  0  0  0  0
    1.2375    0.7145    0.0000 C   0  0  0  0  0  0  0  0  0  0  0  0
    0.8250    1.4289    0.0000 N   0  0  0  0  0  0  0  0  0  0  0  0
    0.8250    0.0000    0.0000 C   0  0  0  0  0  0  0  0  0  0  0  0
    0.0000    0.0000    0.0000 O   0  0  0  0  0  0  0  0  0  0  0  0
    1.2375    2.1434    0.0000 R#  0  0  0  0  0  0  0  0  0  0  0  0
    1.2375   -0.7145    0.0000 R#  0  0  0  0  0  0  0  0  0  0  0  0
  2  1  1  6
  2  3  1  0
  3  6  1  0
  2  4  1  0
  4  7  1  0
  4  5  2  0
M  RGP  2   6   1   7   2
V    6 *
V    7 *
M  END
>  <m_name>  (21)
D-Alanine

>  <symbol>  (21)
dA

>  <m_abbr>  (21)
dA

>  <m_type>  (21)
aa

>  <m_subtype>  (21)
non-natural

>  <m_Rgroups>  (21)
H,OH,None,None

>  <m_RgroupIdx>  (21)
5,6,None,None

>  <m_attachmentPointIdx>  (21)
2,3,None,None

>  <natAnalog>  (21)
A

>  <pdbName>  (21)
DA0

$$$$

     RDKit          2D

  9  8  0  0  0  0  0  0  0  0999 V2000
    1.9520   -1.9520    0.0000 N   0  0  0  0  0  0  0  0  0  0  0  0
    1.9520   -1.1270    0.0000 C   0  0  0  0  0  0  0  0  0  0  0  0
    1.2375   -0.7145    0.0000 C   0  0  0  0  0  0  0  0  0  0  0  0
    1.2375    0.1105    0.0000 S   0  0  0  0  0  0  0  0  0  0  0  0
    2.6664   -0.7145    0.0000 C   0  0  0  0  0  0  0  0  0  0  0  0
    3.3809   -1.1270    0.0000 O   0  0  0  0  0  0  0  0  0  0  0  0
    2.6664   -2.3645    0.0000 R#  0  0  0  0  0  0  0  0  0  0  0  0
    0.5230    0.5230    0.0000 R#  0  0  0  0  0  0  0  0  0  0  0  0
    2.6664    0.1105    0.0000 R#  0  0  0  0  0  0  0  0  0  0  0  0
  7  1  1  0
  2  1  1  0
  2  3  1  6
  3  4  1  0
  4  8  1  0
  2  5  1  0
  5  9  1  0
  5  6  2  0
M  RGP  3   7   1   8   3   9   2
V    7 *
V    8 *
V    9 *
M  END
>  <m_name>  (22)
D-Cysteine

>  <symbol>  (22)
dC

>  <m_abbr>  (22)
dC

>  <m_type>  (22)
aa

>  <m_subtype>  (22)
non-natural

>  <m_Rgroups>  (22)
H,OH,H,None

>  <m_RgroupIdx>  (22)
6,8,7,None

>  <m_attachmentPointIdx>  (22)
0,4,3,None

>  <natAnalog>  (22)
C

>  <pdbName>  (22)
DC6

$$$$

     RDKit          2D

 10  9  0  0  0  0  0  0  0  0999 V2000
    1.9520   -1.9520    0.0000 N   0  0  0  0  0  0  0  0  0  0  0  0
    1.9520   -1.1270    0.0000 C   0  0  0  0  0  0  0  0  0  0  0  0
    1.2375   -0.7145    0.0000 C   0  0  0  0  0  0  0  0  0  0  0  0
    1.2375    0.1105    0.0000 C   0  0  0  0  0  0  0  0  0  0  0  0
    1.9520    0.5230    0.0000 O   0  0  0  0  0  0  0  0  0  0  0  0
    2.6664   -0.7145    0.0000 C   0  0  0  0  0  0  0  0  0  0  0  0
    3.3809   -1.1270    0.0000 O   0  0  0  0  0  0  0  0  0  0  0  0
    2.6664   -2.3645    0.0000 R#  0  0  0  0  0  0  0  0  0  0  0  0
    0.5230    0.5230    0.0000 R#  0  0  0  0  0  0  0  0  0  0  0  0
    2.6664    0.1105    0.0000 R#  0  0  0  0  0  0  0  0  0  0  0  0
  8  1  1  0
  2  1  1  0
  2  3  1  6
  3  4  1  0
  4  9  1  0
  4  5  2  0
  2  6  1  0
  6 10  1  0
  6  7  2  0
M  RGP  3   8   1   9   3  10   2
V    8 *
V    9 *
V   10 *
M  END
>  <m_name>  (23)
D-Aspartic acid

>  <symbol>  (23)
dD

>  <m_abbr>  (23)
dD

>  <m_type>  (23)
aa

>  <m_subtype>  (23)
non-natural

>  <m_Rgroups>  (23)
H,OH,OH,None

>  <m_RgroupIdx>  (23)
7,9,8,None

>  <m_attachmentPointIdx>  (23)
0,5,3,None

>  <natAnalog>  (23)
D

>  <pdbName>  (23)
DD0

$$$$

     RDKit          2D

 11 10  0  0  0  0  0  0  0  0999 V2000
    3.7125    3.5724    0.0000 N   0  0  0  0  0  0  0  0  0  0  0  0
    3.3000    2.8579    0.0000 C   0  0  0  0  0  0  0  0  0  0  0  0
    2.4750    2.8579    0.0000 C   0  0  0  0  0  0  0  0  0  0  0  0
    2.0625    2.1434    0.0000 C   0  0  0  0  0  0  0  0  0  0  0  0
    1.2375    2.1434    0.0000 C   0  0  0  0  0  0  0  0  0  0  0  0
    0.8250    2.8579    0.0000 O   0  0  0  0  0  0  0  0  0  0  0  0
    3.7125    2.1434    0.0000 C   0  0  0  0  0  0  0  0  0  0  0  0
    3.3000    1.4289    0.0000 O   0  0  0  0  0  0  0  0  0  0  0  0
    4.5375    3.5724    0.0000 R#  0  0  0  0  0  0  0  0  0  0  0  0
    0.8250    1.4289    0.0000 R#  0  0  0  0  0  0  0  0  0  0  0  0
    4.5375    2.1434    0.0000 R#  0  0  0  0  0  0  0  0  0  0  0  0
  9  1  1  0
  2  1  1  0
  2  3  1  1
  3  4  1  0
  4  5  1  0
  5 10  1  0
  5  6  2  0
  2  7  1  0
  7 11  1  0
  7  8  2  0
M  RGP  3   9   1  10   3  11   2
V    9 *
V   10 *
V   11 *
M  END
>  <m_name>  (24)
D-Glutamic acid

>  <symbol>  (24)
dE

>  <m_abbr>  (24)
dE

>  <m_type>  (24)
aa

>  <m_subtype>  (24)
non-natural

>  <m_Rgroups>  (24)
H,OH,OH,None

>  <m_RgroupIdx>  (24)
8,10,9,None

>  <m_attachmentPointIdx>  (24)
0,6,4,None

>  <natAnalog>  (24)
E

>  <pdbName>  (24)
DEK

$$$$

     RDKit          2D

 13 13  0  0  0  0  0  0  0  0999 V2000
    0.0000    3.3000    0.0000 N   0  0  0  0  0  0  0  0  0  0  0  0
    0.0000    2.4750    0.0000 C   0  0  0  0  0  0  0  0  0  0  0  0
    0.7145    2.0625    0.0000 C   0  0  0  0  0  0  0  0  0  0  0  0
    0.7145    1.2375    0.0000 C   0  0  0  0  0  0  0  0  0  0  0  0
    1.4289    0.8250    0.0000 C   0  0  0  0  0  0  0  0  0  0  0  0
    1.4289    0.0000    0.0000 C   0  0  0  0  0  0  0  0  0  0  0  0
    0.7145   -0.4125    0.0000 C   0  0  0  0  0  0  0  0  0  0  0  0
    0.0000    0.0000    0.0000 C   0  0  0  0  0  0  0  0  0  0  0  0
    0.0000    0.8250    0.0000 C   0  0  0  0  0  0  0  0  0  0  0  0
   -0.7145    2.0625    0.0000 C   0  0  0  0  0  0  0  0  0  0  0  0
   -1.4289    2.4750    0.0000 O   0  0  0  0  0  0  0  0  0  0  0  0
   -0.7145    3.7125    0.0000 R#  0  0  0  0  0  0  0  0  0  0  0  0
   -0.7145    1.2375    0.0000 R#  0  0  0  0  0  0  0  0  0  0  0  0
 12  1  1  0
  2  1  1  0
  2  3  1  6
  3  4  1  0
  4  5  2  0
  5  6  1  0
  6  7  2  0
  7  8  1  0
  8  9  2  0
  4  9  1  0
  2 10  1  0
 10 13  1  0
 10 11  2  0
M  RGP  2  12   1  13   2
V   12 *
V   13 *
M  END
>  <m_name>  (25)
D-Phenylalanine

>  <symbol>  (25)
dF

>  <m_abbr>  (25)
dF

>  <m_type>  (25)
aa

>  <m_subtype>  (25)
non-natural

>  <m_Rgroups>  (25)
H,OH,None,None

>  <m_RgroupIdx>  (25)
11,12,None,None

>  <m_attachmentPointIdx>  (25)
0,9,None,None

>  <natAnalog>  (25)
F

>  <pdbName>  (25)
DBL

$$$$

     RDKit          2D

 12 12  0  0  0  0  0  0  0  0999 V2000
   -0.1467    3.1768    0.0000 N   0  0  0  0  0  0  0  0  0  0  0  0
   -0.1467    2.3518    0.0000 C   0  0  0  0  0  0  0  0  0  0  0  0
    0.5678    1.9393    0.0000 C   0  0  0  0  0  0  0  0  0  0  0  0
    0.5678    1.1143    0.0000 C   0  0  0  0  0  0  0  0  0  0  0  0
    1.2352    0.6294    0.0000 C   0  0  0  0  0  0  0  0  0  0  0  0
    0.9803   -0.1553    0.0000 N   0  0  0  0  0  0  0  0  0  0  0  0
    0.1553   -0.1553    0.0000 C   0  0  0  0  0  0  0  0  0  0  0  0
   -0.0997    0.6294    0.0000 N   0  0  0  0  0  0  0  0  0  0  0  0
   -0.8612    1.9393    0.0000 C   0  0  0  0  0  0  0  0  0  0  0  0
   -1.5757    2.3518    0.0000 O   0  0  0  0  0  0  0  0  0  0  0  0
   -0.8612    3.5893    0.0000 R#  0  0  0  0  0  0  0  0  0  0  0  0
   -0.8612    1.1143    0.0000 R#  0  0  0  0  0  0  0  0  0  0  0  0
 11  1  1  0
  2  1  1  0
  2  3  1  6
  3  4  1  0
  4  5  2  0
  5  6  1  0
  6  7  1  0
  7  8  2  0
  4  8  1  0
  2  9  1  0
  9 12  1  0
  9 10  2  0
M  RGP  2  11   1  12   2
V   11 *
V   12 *
M  END
>  <m_name>  (26)
D-Histidine

>  <symbol>  (26)
dH

>  <m_abbr>  (26)
dH

>  <m_type>  (26)
aa

>  <m_subtype>  (26)
non-natural

>  <m_Rgroups>  (26)
H,OH,None,None

>  <m_RgroupIdx>  (26)
10,11,None,None

>  <m_attachmentPointIdx>  (26)
0,8,None,None

>  <natAnalog>  (26)
H

>  <pdbName>  (26)
DHW

$$$$

     RDKit          2D

 10  9  0  0  0  0  0  0  0  0999 V2000
    0.5230    0.5230    0.0000 C   0  0  0  0  0  0  0  0  0  0  0  0
    1.2375    0.1105    0.0000 C   0  0  0  0  0  0  0  0  0  0  0  0
    1.2375   -0.7145    0.0000 C   0  0  0  0  0  0  0  0  0  0  0  0
    0.5230   -1.1270    0.0000 C   0  0  0  0  0  0  0  0  0  0  0  0
    1.9520   -1.1270    0.0000 C   0  0  0  0  0  0  0  0  0  0  0  0
    1.9520   -1.9520    0.0000 N   0  0  0  0  0  0  0  0  0  0  0  0
    2.6664   -0.7145    0.0000 C   0  0  0  0  0  0  0  0  0  0  0  0
    3.3809   -1.1270    0.0000 O   0  0  0  0  0  0  0  0  0  0  0  0
    2.6664   -2.3645    0.0000 R#  0  0  0  0  0  0  0  0  0  0  0  0
    2.6664    0.1105    0.0000 R#  0  0  0  0  0  0  0  0  0  0  0  0
  1  2  1  0
  3  2  1  0
  3  4  1  6
  3  5  1  0
  5  6  1  6
  6  9  1  0
  5  7  1  0
  7 10  1  0
  7  8  2  0
M  RGP  2   9   1  10   2
V    9 *
V   10 *
M  END
>  <m_name>  (27)
D-Isoleucine

>  <symbol>  (27)
dI

>  <m_abbr>  (27)
dI

>  <m_type>  (27)
aa

>  <m_subtype>  (27)
non-natural

>  <m_Rgroups>  (27)
H,OH,None,None

>  <m_RgroupIdx>  (27)
8,9,None,None

>  <m_attachmentPointIdx>  (27)
5,6,None,None

>  <natAnalog>  (27)
I

>  <pdbName>  (27)
DIJ

$$$$

     RDKit          2D

 12 11  0  0  0  0  0  0  0  0999 V2000
    5.2882    4.9755    0.0000 N   0  0  0  0  0  0  0  0  0  0  0  0
    4.7481    4.3519    0.0000 C   0  0  0  0  0  0  0  0  0  0  0  0
    3.9379    4.5078    0.0000 C   0  0  0  0  0  0  0  0  0  0  0  0
    3.3979    3.8842    0.0000 C   0  0  0  0  0  0  0  0  0  0  0  0
    2.5877    4.0401    0.0000 C   0  0  0  0  0  0  0  0  0  0  0  0
    2.0476    3.4164    0.0000 C   0  0  0  0  0  0  0  0  0  0  0  0
    1.2375    3.5724    0.0000 N   0  0  0  0  0  0  0  0  0  0  0  0
    5.0181    3.5724    0.0000 C   0  0  0  0  0  0  0  0  0  0  0  0
    4.4780    2.9487    0.0000 O   0  0  0  0  0  0  0  0  0  0  0  0
    6.0983    4.8196    0.0000 R#  0  0  0  0  0  0  0  0  0  0  0  0
    0.6974    2.9487    0.0000 R#  0  0  0  0  0  0  0  0  0  0  0  0
    5.8283    3.4164    0.0000 R#  0  0  0  0  0  0  0  0  0  0  0  0
 10  1  1  0
  2  1  1  0
  2  3  1  1
  3  4  1  0
  4  5  1  0
  5  6  1  0
  6  7  1  0
  7 11  1  0
  2  8  1  0
  8 12  1  0
  8  9  2  0
M  RGP  3  10   1  11   3  12   2
V   10 *
V   11 *
V   12 *
M  END
>  <m_name>  (28)
D-Lysine

>  <symbol>  (28)
dK

>  <m_abbr>  (28)
dK

>  <m_type>  (28)
aa

>  <m_subtype>  (28)
non-natural

>  <m_Rgroups>  (28)
H,OH,H,None

>  <m_RgroupIdx>  (28)
9,11,10,None

>  <m_attachmentPointIdx>  (28)
0,7,6,None

>  <natAnalog>  (28)
K

>  <pdbName>  (28)
DKB

$$$$

     RDKit          2D

 10  9  0  0  0  0  0  0  0  0999 V2000
    0.5230    0.5230    0.0000 C   0  0  0  0  0  0  0  0  0  0  0  0
    1.2375    0.1105    0.0000 C   0  0  0  0  0  0  0  0  0  0  0  0
    1.9520    0.5230    0.0000 C   0  0  0  0  0  0  0  0  0  0  0  0
    1.2375   -0.7145    0.0000 C   0  0  0  0  0  0  0  0  0  0  0  0
    1.9520   -1.1270    0.0000 C   0  0  0  0  0  0  0  0  0  0  0  0
    1.9520   -1.9520    0.0000 N   0  0  0  0  0  0  0  0  0  0  0  0
    2.6664   -0.7145    0.0000 C   0  0  0  0  0  0  0  0  0  0  0  0
    3.3809   -1.1270    0.0000 O   0  0  0  0  0  0  0  0  0  0  0  0
    2.6664   -2.3645    0.0000 R#  0  0  0  0  0  0  0  0  0  0  0  0
    2.6664    0.1105    0.0000 R#  0  0  0  0  0  0  0  0  0  0  0  0
  1  2  1  0
  2  3  1  0
  2  4  1  0
  5  4  1  6
  5  6  1  0
  6  9  1  0
  5  7  1  0
  7 10  1  0
  7  8  2  0
M  RGP  2   9   1  10   2
V    9 *
V   10 *
M  END
>  <m_name>  (29)
D-Leucine

>  <symbol>  (29)
dL

>  <m_abbr>  (29)
dL

>  <m_type>  (29)
aa

>  <m_subtype>  (29)
non-natural

>  <m_Rgroups>  (29)
H,OH,None,None

>  <m_RgroupIdx>  (29)
8,9,None,None

>  <m_attachmentPointIdx>  (29)
5,6,None,None

>  <natAnalog>  (29)
L

>  <pdbName>  (29)
DLO

$$$$

     RDKit          2D

 10  9  0  0  0  0  0  0  0  0999 V2000
    0.8250   -1.4289    0.0000 C   0  0  0  0  0  0  0  0  0  0  0  0
    1.2375   -2.1434    0.0000 S   0  0  0  0  0  0  0  0  0  0  0  0
    2.0625   -2.1434    0.0000 C   0  0  0  0  0  0  0  0  0  0  0  0
    2.4750   -2.8579    0.0000 C   0  0  0  0  0  0  0  0  0  0  0  0
    3.3000   -2.8579    0.0000 C   0  0  0  0  0  0  0  0  0  0  0  0
    3.7125   -3.5724    0.0000 N   0  0  0  0  0  0  0  0  0  0  0  0
    3.7125   -2.1434    0.0000 C   0  0  0  0  0  0  0  0  0  0  0  0
    4.5375   -2.1434    0.0000 O   0  0  0  0  0  0  0  0  0  0  0  0
    4.5375   -3.5724    0.0000 R#  0  0  0  0  0  0  0  0  0  0  0  0
    3.3000   -1.4289    0.0000 R#  0  0  0  0  0  0  0  0  0  0  0  0
  1  2  1  0
  2  3  1  0
  3  4  1  0
  5  4  1  6
  5  6  1  0
  6  9  1  0
  5  7  1  0
  7 10  1  0
  7  8  2  0
M  RGP  2   9   1  10   2
V    9 *
V   10 *
M  END
>  <m_name>  (30)
D-Methionine

>  <symbol>  (30)
dM

>  <m_abbr>  (30)
dM

>  <m_type>  (30)
aa

>  <m_subtype>  (30)
non-natural

>  <m_Rgroups>  (30)
H,OH,None,None

>  <m_RgroupIdx>  (30)
8,9,None,None

>  <m_attachmentPointIdx>  (30)
5,6,None,None

>  <natAnalog>  (30)
M

>  <pdbName>  (30)
DB2

$$$$

     RDKit          2D

 10  9  0  0  0  0  0  0  0  0999 V2000
    0.5230    0.5230    0.0000 N   0  0  0  0  0  0  0  0  0  0  0  0
    1.2375    0.1105    0.0000 C   0  0  0  0  0  0  0  0  0  0  0  0
    1.9520    0.5230    0.0000 O   0  0  0  0  0  0  0  0  0  0  0  0
    1.2375   -0.7145    0.0000 C   0  0  0  0  0  0  0  0  0  0  0  0
    1.9520   -1.1270    0.0000 C   0  0  0  0  0  0  0  0  0  0  0  0
    1.9520   -1.9520    0.0000 N   0  0  0  0  0  0  0  0  0  0  0  0
    2.6664   -0.7145    0.0000 C   0  0  0  0  0  0  0  0  0  0  0  0
    3.3809   -1.1270    0.0000 O   0  0  0  0  0  0  0  0  0  0  0  0
    2.6664   -2.3645    0.0000 R#  0  0  0  0  0  0  0  0  0  0  0  0
    2.6664    0.1105    0.0000 R#  0  0  0  0  0  0  0  0  0  0  0  0
  1  2  1  0
  2  3  2  0
  2  4  1  0
  5  4  1  6
  5  6  1  0
  6  9  1  0
  5  7  1  0
  7 10  1  0
  7  8  2  0
M  RGP  2   9   1  10   2
V    9 *
V   10 *
M  END
>  <m_name>  (31)
D-Asparagine

>  <symbol>  (31)
dN

>  <m_abbr>  (31)
dN

>  <m_type>  (31)
aa

>  <m_subtype>  (31)
non-natural

>  <m_Rgroups>  (31)
H,OH,None,None

>  <m_RgroupIdx>  (31)
8,9,None,None

>  <m_attachmentPointIdx>  (31)
5,6,None,None

>  <natAnalog>  (31)
N

>  <pdbName>  (31)
DNI

$$$$

     RDKit          2D

  9  9  0  0  0  0  0  0  0  0999 V2000
    0.5678    1.1143    0.0000 N   0  0  0  0  0  0  0  0  0  0  0  0
    1.2352    0.6294    0.0000 C   0  0  0  0  0  0  0  0  0  0  0  0
    0.9803   -0.1553    0.0000 C   0  0  0  0  0  0  0  0  0  0  0  0
    0.1553   -0.1553    0.0000 C   0  0  0  0  0  0  0  0  0  0  0  0
   -0.0997    0.6294    0.0000 C   0  0  0  0  0  0  0  0  0  0  0  0
   -0.8843    0.8843    0.0000 C   0  0  0  0  0  0  0  0  0  0  0  0
   -1.0558    1.6913    0.0000 O   0  0  0  0  0  0  0  0  0  0  0  0
    0.5678    1.9393    0.0000 R#  0  0  0  0  0  0  0  0  0  0  0  0
   -1.4974    0.3323    0.0000 R#  0  0  0  0  0  0  0  0  0  0  0  0
  8  1  1  0
  1  2  1  0
  2  3  1  0
  3  4  1  0
  5  4  1  0
  5  1  1  0
  5  6  1  6
  6  9  1  0
  6  7  2  0
M  RGP  2   8   1   9   2
V    8 *
V    9 *
M  END
>  <m_name>  (32)
D-Proline

>  <symbol>  (32)
dP

>  <m_abbr>  (32)
dP

>  <m_type>  (32)
aa

>  <m_subtype>  (32)
non-natural

>  <m_Rgroups>  (32)
H,OH,None,None

>  <m_RgroupIdx>  (32)
7,8,None,None

>  <m_attachmentPointIdx>  (32)
0,5,None,None

>  <natAnalog>  (32)
P

>  <pdbName>  (32)
DPI

$$$$

     RDKit          2D

 11 10  0  0  0  0  0  0  0  0999 V2000
    0.8250   -1.4289    0.0000 N   0  0  0  0  0  0  0  0  0  0  0  0
    1.2375   -2.1434    0.0000 C   0  0  0  0  0  0  0  0  0  0  0  0
    0.8250   -2.8579    0.0000 O   0  0  0  0  0  0  0  0  0  0  0  0
    2.0625   -2.1434    0.0000 C   0  0  0  0  0  0  0  0  0  0  0  0
    2.4750   -2.8579    0.0000 C   0  0  0  0  0  0  0  0  0  0  0  0
    3.3000   -2.8579    0.0000 C   0  0  0  0  0  0  0  0  0  0  0  0
    3.7125   -3.5724    0.0000 N   0  0  0  0  0  0  0  0  0  0  0  0
    3.7125   -2.1434    0.0000 C   0  0  0  0  0  0  0  0  0  0  0  0
    4.5375   -2.1434    0.0000 O   0  0  0  0  0  0  0  0  0  0  0  0
    4.5375   -3.5724    0.0000 R#  0  0  0  0  0  0  0  0  0  0  0  0
    3.3000   -1.4289    0.0000 R#  0  0  0  0  0  0  0  0  0  0  0  0
  1  2  1  0
  2  3  2  0
  2  4  1  0
  4  5  1  0
  6  5  1  6
  6  7  1  0
  7 10  1  0
  6  8  1  0
  8 11  1  0
  8  9  2  0
M  RGP  2  10   1  11   2
V   10 *
V   11 *
M  END
>  <m_name>  (33)
D-Glutamine

>  <symbol>  (33)
dQ

>  <m_abbr>  (33)
dQ

>  <m_type>  (33)
aa

>  <m_subtype>  (33)
non-natural

>  <m_Rgroups>  (33)
H,OH,None,None

>  <m_RgroupIdx>  (33)
9,10,None,None

>  <m_attachmentPointIdx>  (33)
6,7,None,None

>  <natAnalog>  (33)
Q

>  <pdbName>  (33)
DQC

$$$$

     RDKit          2D

 13 12  0  0  0  0  0  0  0  0999 V2000
    0.6974   -2.9487    0.0000 N   0  0  0  0  0  0  0  0  0  0  0  0
    1.2375   -3.5724    0.0000 C   0  0  0  0  0  0  0  0  0  0  0  0
    0.9675   -4.3519    0.0000 N   0  0  0  0  0  0  0  0  0  0  0  0
    2.0476   -3.4164    0.0000 N   0  0  0  0  0  0  0  0  0  0  0  0
    2.5877   -4.0401    0.0000 C   0  0  0  0  0  0  0  0  0  0  0  0
    3.3979   -3.8842    0.0000 C   0  0  0  0  0  0  0  0  0  0  0  0
    3.9379   -4.5078    0.0000 C   0  0  0  0  0  0  0  0  0  0  0  0
    4.7481   -4.3519    0.0000 C   0  0  0  0  0  0  0  0  0  0  0  0
    5.2882   -4.9755    0.0000 N   0  0  0  0  0  0  0  0  0  0  0  0
    5.0181   -3.5724    0.0000 C   0  0  0  0  0  0  0  0  0  0  0  0
    5.8283   -3.4164    0.0000 O   0  0  0  0  0  0  0  0  0  0  0  0
    6.0983   -4.8196    0.0000 R#  0  0  0  0  0  0  0  0  0  0  0  0
    4.4780   -2.9487    0.0000 R#  0  0  0  0  0  0  0  0  0  0  0  0
  1  2  1  0
  2  3  2  0
  2  4  1  0
  4  5  1  0
  5  6  1  0
  6  7  1  0
  8  7  1  6
  8  9  1  0
  9 12  1  0
  8 10  1  0
 10 13  1  0
 10 11  2  0
M  RGP  2  12   1  13   2
V   12 *
V   13 *
M  END
>  <m_name>  (34)
D-Arginine

>  <symbol>  (34)
dR

>  <m_abbr>  (34)
dR

>  <m_type>  (34)
aa

>  <m_subtype>  (34)
non-natural

>  <m_Rgroups>  (34)
H,OH,None,None

>  <m_RgroupIdx>  (34)
11,12,None,None

>  <m_attachmentPointIdx>  (34)
8,9,None,None

>  <natAnalog>  (34)
R

>  <pdbName>  (34)
DC9

$$$$

     RDKit          2D

  8  7  0  0  0  0  0  0  0  0999 V2000
    0.0000   -1.4289    0.0000 O   0  0  0  0  0  0  0  0  0  0  0  0
    0.8250   -1.4289    0.0000 C   0  0  0  0  0  0  0  0  0  0  0  0
    1.2375   -0.7145    0.0000 C   0  0  0  0  0  0  0  0  0  0  0  0
    2.0625   -0.7145    0.0000 N   0  0  0  0  0  0  0  0  0  0  0  0
    0.8250    0.0000    0.0000 C   0  0  0  0  0  0  0  0  0  0  0  0
    0.0000    0.0000    0.0000 O   0  0  0  0  0  0  0  0  0  0  0  0
    2.4750    0.0000    0.0000 R#  0  0  0  0  0  0  0  0  0  0  0  0
    1.2375    0.7145    0.0000 R#  0  0  0  0  0  0  0  0  0  0  0  0
  1  2  1  0
  3  2  1  6
  3  4  1  0
  4  7  1  0
  3  5  1  0
  5  8  1  0
  5  6  2  0
M  RGP  2   7   1   8   2
V    7 *
V    8 *
M  END
>  <m_name>  (35)
D-Serine

>  <symbol>  (35)
dS

>  <m_abbr>  (35)
dS

>  <m_type>  (35)
aa

>  <m_subtype>  (35)
non-natural

>  <m_Rgroups>  (35)
H,OH,None,None

>  <m_RgroupIdx>  (35)
6,7,None,None

>  <m_attachmentPointIdx>  (35)
3,4,None,None

>  <natAnalog>  (35)
S

>  <pdbName>  (35)
DSW

$$$$

     RDKit          2D

  9  8  0  0  0  0  0  0  0  0999 V2000
    0.0000   -1.4289    0.0000 C   0  0  0  0  0  0  0  0  0  0  0  0
    0.8250   -1.4289    0.0000 C   0  0  0  0  0  0  0  0  0  0  0  0
    1.2375   -2.1434    0.0000 O   0  0  0  0  0  0  0  0  0  0  0  0
    1.2375   -0.7145    0.0000 C   0  0  0  0  0  0  0  0  0  0  0  0
    2.0625   -0.7145    0.0000 N   0  0  0  0  0  0  0  0  0  0  0  0
    0.8250    0.0000    0.0000 C   0  0  0  0  0  0  0  0  0  0  0  0
    0.0000    0.0000    0.0000 O   0  0  0  0  0  0  0  0  0  0  0  0
    2.4750    0.0000    0.0000 R#  0  0  0  0  0  0  0  0  0  0  0  0
    1.2375    0.7145    0.0000 R#  0  0  0  0  0  0  0  0  0  0  0  0
  2  1  1  1
  2  3  1  0
  2  4  1  0
  4  5  1  6
  5  8  1  0
  4  6  1  0
  6  9  1  0
  6  7  2  0
M  RGP  2   8   1   9   2
V    8 *
V    9 *
M  END
>  <m_name>  (36)
D-Threonine

>  <symbol>  (36)
dT

>  <m_abbr>  (36)
dT

>  <m_type>  (36)
aa

>  <m_subtype>  (36)
non-natural

>  <m_Rgroups>  (36)
H,OH,None,None

>  <m_RgroupIdx>  (36)
7,8,None,None

>  <m_attachmentPointIdx>  (36)
4,5,None,None

>  <natAnalog>  (36)
T

>  <pdbName>  (36)
DE8

$$$$

     RDKit          2D

  9  8  0  0  0  0  0  0  0  0999 V2000
    0.0000   -1.4289    0.0000 C   0  0  0  0  0  0  0  0  0  0  0  0
    0.8250   -1.4289    0.0000 C   0  0  0  0  0  0  0  0  0  0  0  0
    1.2375   -2.1434    0.0000 C   0  0  0  0  0  0  0  0  0  0  0  0
    1.2375   -0.7145    0.0000 C   0  0  0  0  0  0  0  0  0  0  0  0
    2.0625   -0.7145    0.0000 N   0  0  0  0  0  0  0  0  0  0  0  0
    0.8250    0.0000    0.0000 C   0  0  0  0  0  0  0  0  0  0  0  0
    0.0000    0.0000    0.0000 O   0  0  0  0  0  0  0  0  0  0  0  0
    2.4750    0.0000    0.0000 R#  0  0  0  0  0  0  0  0  0  0  0  0
    1.2375    0.7145    0.0000 R#  0  0  0  0  0  0  0  0  0  0  0  0
  1  2  1  0
  2  3  1  0
  4  2  1  0
  4  5  1  6
  5  8  1  0
  4  6  1  0
  6  9  1  0
  6  7  2  0
M  RGP  2   8   1   9   2
V    8 *
V    9 *
M  END
>  <m_name>  (37)
D-Valine

>  <symbol>  (37)
dV

>  <m_abbr>  (37)
dV

>  <m_type>  (37)
aa

>  <m_subtype>  (37)
non-natural

>  <m_Rgroups>  (37)
H,OH,None,None

>  <m_RgroupIdx>  (37)
7,8,None,None

>  <m_attachmentPointIdx>  (37)
4,5,None,None

>  <natAnalog>  (37)
V

>  <pdbName>  (37)
DVB

$$$$

     RDKit          2D

 16 17  0  0  0  0  0  0  0  0999 V2000
   -0.1781   -3.1062    0.0000 N   0  0  0  0  0  0  0  0  0  0  0  0
    0.0768   -2.3215    0.0000 C   0  0  0  0  0  0  0  0  0  0  0  0
    0.8838   -2.1500    0.0000 C   0  0  0  0  0  0  0  0  0  0  0  0
    1.1387   -1.3654    0.0000 C   0  0  0  0  0  0  0  0  0  0  0  0
    0.6538   -0.6979    0.0000 C   0  0  0  0  0  0  0  0  0  0  0  0
    1.1387   -0.0305    0.0000 N   0  0  0  0  0  0  0  0  0  0  0  0
    1.9233   -0.2854    0.0000 C   0  0  0  0  0  0  0  0  0  0  0  0
    2.6378    0.1271    0.0000 C   0  0  0  0  0  0  0  0  0  0  0  0
    3.3523   -0.2854    0.0000 C   0  0  0  0  0  0  0  0  0  0  0  0
    3.3523   -1.1104    0.0000 C   0  0  0  0  0  0  0  0  0  0  0  0
    2.6378   -1.5229    0.0000 C   0  0  0  0  0  0  0  0  0  0  0  0
    1.9233   -1.1104    0.0000 C   0  0  0  0  0  0  0  0  0  0  0  0
   -0.4752   -1.7084    0.0000 C   0  0  0  0  0  0  0  0  0  0  0  0
   -1.2822   -1.8800    0.0000 O   0  0  0  0  0  0  0  0  0  0  0  0
   -0.9851   -3.2777    0.0000 R#  0  0  0  0  0  0  0  0  0  0  0  0
   -0.2203   -0.9238    0.0000 R#  0  0  0  0  0  0  0  0  0  0  0  0
 15  1  1  0
  2  1  1  0
  2  3  1  1
  3  4  1  0
  4  5  2  0
  5  6  1  0
  6  7  1  0
  7  8  2  0
  8  9  1  0
  9 10  2  0
 10 11  1  0
 11 12  2  0
  4 12  1  0
  7 12  1  0
  2 13  1  0
 13 16  1  0
 13 14  2  0
M  RGP  2  15   1  16   2
V   15 *
V   16 *
M  END
>  <m_name>  (38)
D-Tryptophan

>  <symbol>  (38)
dW

>  <m_abbr>  (38)
dW

>  <m_type>  (38)
aa

>  <m_subtype>  (38)
non-natural

>  <m_Rgroups>  (38)
H,OH,None,None

>  <m_RgroupIdx>  (38)
14,15,None,None

>  <m_attachmentPointIdx>  (38)
0,12,None,None

>  <natAnalog>  (38)
W

>  <pdbName>  (38)
DWI

$$$$

     RDKit          2D

 14 14  0  0  0  0  0  0  0  0999 V2000
    0.7145    2.0625    0.0000 O   0  0  0  0  0  0  0  0  0  0  0  0
    0.7145    1.2375    0.0000 C   0  0  0  0  0  0  0  0  0  0  0  0
    1.4289    0.8250    0.0000 C   0  0  0  0  0  0  0  0  0  0  0  0
    1.4289    0.0000    0.0000 C   0  0  0  0  0  0  0  0  0  0  0  0
    0.7145   -0.4125    0.0000 C   0  0  0  0  0  0  0  0  0  0  0  0
    0.7145   -1.2375    0.0000 C   0  0  0  0  0  0  0  0  0  0  0  0
    1.4289   -1.6500    0.0000 C   0  0  0  0  0  0  0  0  0  0  0  0
    1.4289   -2.4750    0.0000 N   0  0  0  0  0  0  0  0  0  0  0  0
    2.1434   -1.2375    0.0000 C   0  0  0  0  0  0  0  0  0  0  0  0
    2.1434   -0.4125    0.0000 O   0  0  0  0  0  0  0  0  0  0  0  0
    0.0000    0.0000    0.0000 C   0  0  0  0  0  0  0  0  0  0  0  0
    0.0000    0.8250    0.0000 C   0  0  0  0  0  0  0  0  0  0  0  0
    2.1434   -2.8875    0.0000 R#  0  0  0  0  0  0  0  0  0  0  0  0
    2.8579   -1.6500    0.0000 R#  0  0  0  0  0  0  0  0  0  0  0  0
  1  2  1  0
  2  3  2  0
  3  4  1  0
  4  5  2  0
  5  6  1  0
  7  6  1  6
  7  8  1  0
  8 13  1  0
  7  9  1  0
  9 14  1  0
  9 10  2  0
  5 11  1  0
 11 12  2  0
  2 12  1  0
M  RGP  2  13   1  14   2
V   13 *
V   14 *
M  END
>  <m_name>  (39)
D-Tyrosine

>  <symbol>  (39)
dY

>  <m_abbr>  (39)
dY

>  <m_type>  (39)
aa

>  <m_subtype>  (39)
non-natural

>  <m_Rgroups>  (39)
H,OH,None,None

>  <m_RgroupIdx>  (39)
12,13,None,None

>  <m_attachmentPointIdx>  (39)
7,8,None,None

>  <natAnalog>  (39)
Y

>  <pdbName>  (39)
DYE

$$$$

     RDKit          2D

  4  3  0  0  0  0  0  0  0  0999 V2000
    1.2375    0.7145    0.0000 C   0  0  0  0  0  0  0  0  0  0  0  0
    0.8250    0.0000    0.0000 C   0  0  0  0  0  0  0  0  0  0  0  0
    0.0000    0.0000    0.0000 O   0  0  0  0  0  0  0  0  0  0  0  0
    1.2375   -0.7145    0.0000 R#  0  0  0  0  0  0  0  0  0  0  0  0
  1  2  1  0
  2  4  1  0
  2  3  2  0
M  RGP  1   4   2
V    4 *
M  END
>  <m_name>  (40)
N-Terminal acetic acid

>  <symbol>  (40)
ac

>  <m_abbr>  (40)
ac

>  <m_type>  (40)
aa

>  <m_subtype>  (40)
aa

>  <m_Rgroups>  (40)
None,OH,None,None

>  <m_RgroupIdx>  (40)
None,3,None,None

>  <m_attachmentPointIdx>  (40)
None,1,None,None

>  <natAnalog>  (40)
X

>  <pdbName>  (40)
ACE

$$$$

     RDKit          2D

  2  1  0  0  0  0  0  0  0  0999 V2000
    0.8250    0.0000    0.0000 N   0  0  0  0  0  0  0  0  0  0  0  0
    0.0000    0.0000    0.0000 R#  0  0  0  0  0  0  0  0  0  0  0  0
  1  2  1  0
M  RGP  1   2   1
V    2 *
M  END
>  <m_name>  (41)
C-Terminal amine

>  <symbol>  (41)
am

>  <m_abbr>  (41)
am

>  <m_type>  (41)
aa

>  <m_subtype>  (41)
aa

>  <m_Rgroups>  (41)
H,None,None,None

>  <m_RgroupIdx>  (41)
1,None,None,None

>  <m_attachmentPointIdx>  (41)
0,None,None,None

>  <natAnalog>  (41)
X

>  <pdbName>  (41)
NH2

$$$$

     RDKit          2D

  2  1  0  0  0  0  0  0  0  0999 V2000
    0.8250    0.0000    0.0000 C   0  0  0  0  0  0  0  0  0  0  0  0
    0.0000    0.0000    0.0000 R#  0  0  0  0  0  0  0  0  0  0  0  0
  1  2  1  0
M  RGP  1   2   1
V    2 *
M  END
>  <m_name>  (42)
C-Terminal methyl

>  <symbol>  (42)
_Me

>  <m_abbr>  (42)
_Me

>  <m_type>  (42)
aa

>  <m_subtype>  (42)
aa

>  <m_Rgroups>  (42)
H,None,None,None

>  <m_RgroupIdx>  (42)
1,None,None,None

>  <m_attachmentPointIdx>  (42)
0,None,None,None

>  <natAnalog>  (42)
X

>  <pdbName>  (42)
MEH

$$$$

     RDKit          2D

  8  7  0  0  0  0  0  0  0  0999 V2000
    2.0625    0.7145    0.0000 C   0  0  0  0  0  0  0  0  0  0  0  0
    1.2375    0.7145    0.0000 C   0  0  0  0  0  0  0  0  0  0  0  0
    0.8250    1.4289    0.0000 N   0  0  0  0  0  0  0  0  0  0  0  0
    1.2375    2.1434    0.0000 C   0  0  0  0  0  0  0  0  0  0  0  0
    0.8250    0.0000    0.0000 C   0  0  0  0  0  0  0  0  0  0  0  0
    0.0000    0.0000    0.0000 O   0  0  0  0  0  0  0  0  0  0  0  0
    0.0000    1.4289    0.0000 R#  0  0  0  0  0  0  0  0  0  0  0  0
    1.2375   -0.7145    0.0000 R#  0  0  0  0  0  0  0  0  0  0  0  0
  2  1  1  1
  2  3  1  0
  3  4  1  0
  3  7  1  0
  2  5  1  0
  5  8  1  0
  5  6  2  0
M  RGP  2   7   1   8   2
V    7 *
V    8 *
M  END
>  <m_name>  (43)
N-Methyl-Alanine

>  <symbol>  (43)
meA

>  <m_abbr>  (43)
meA

>  <m_type>  (43)
aa

>  <m_subtype>  (43)
non-natural

>  <m_Rgroups>  (43)
H,OH,None,None

>  <m_RgroupIdx>  (43)
6,7,None,None

>  <m_attachmentPointIdx>  (43)
2,4,None,None

>  <natAnalog>  (43)
A

>  <pdbName>  (43)
MBI

$$$$

     RDKit          2D

 11 10  0  0  0  0  0  0  0  0999 V2000
    2.6664   -2.3645    0.0000 C   0  0  0  0  0  0  0  0  0  0  0  0
    1.9520   -1.9520    0.0000 N   0  0  0  0  0  0  0  0  0  0  0  0
    1.9520   -1.1270    0.0000 C   0  0  0  0  0  0  0  0  0  0  0  0
    1.2375   -0.7145    0.0000 C   0  0  0  0  0  0  0  0  0  0  0  0
    1.2375    0.1105    0.0000 C   0  0  0  0  0  0  0  0  0  0  0  0
    1.9520    0.5230    0.0000 O   0  0  0  0  0  0  0  0  0  0  0  0
    2.6664   -0.7145    0.0000 C   0  0  0  0  0  0  0  0  0  0  0  0
    3.3809   -1.1270    0.0000 O   0  0  0  0  0  0  0  0  0  0  0  0
    1.2375   -2.3645    0.0000 R#  0  0  0  0  0  0  0  0  0  0  0  0
    0.5230    0.5230    0.0000 R#  0  0  0  0  0  0  0  0  0  0  0  0
    2.6664    0.1105    0.0000 R#  0  0  0  0  0  0  0  0  0  0  0  0
  1  2  1  0
  2  9  1  0
  3  2  1  0
  3  4  1  1
  4  5  1  0
  5 10  1  0
  5  6  2  0
  3  7  1  0
  7 11  1  0
  7  8  2  0
M  RGP  3   9   1  10   3  11   2
V    9 *
V   10 *
V   11 *
M  END
>  <m_name>  (44)
N-Methyl-Aspartic acid

>  <symbol>  (44)
meD

>  <m_abbr>  (44)
meD

>  <m_type>  (44)
aa

>  <m_subtype>  (44)
non-natural

>  <m_Rgroups>  (44)
H,OH,OH,None

>  <m_RgroupIdx>  (44)
8,10,9,None

>  <m_attachmentPointIdx>  (44)
1,6,4,None

>  <natAnalog>  (44)
D

>  <pdbName>  (44)
MBJ

$$$$

     RDKit          2D

  9  8  0  0  0  0  0  0  0  0999 V2000
    0.0000   -1.4289    0.0000 C   0  0  0  0  0  0  0  0  0  0  0  0
    0.8250   -1.4289    0.0000 N   0  0  0  0  0  0  0  0  0  0  0  0
    1.2375   -0.7145    0.0000 C   0  0  0  0  0  0  0  0  0  0  0  0
    2.0625   -0.7145    0.0000 C   0  0  0  0  0  0  0  0  0  0  0  0
    2.4750    0.0000    0.0000 O   0  0  0  0  0  0  0  0  0  0  0  0
    0.8250    0.0000    0.0000 C   0  0  0  0  0  0  0  0  0  0  0  0
    0.0000    0.0000    0.0000 O   0  0  0  0  0  0  0  0  0  0  0  0
    1.2375   -2.1434    0.0000 R#  0  0  0  0  0  0  0  0  0  0  0  0
    1.2375    0.7145    0.0000 R#  0  0  0  0  0  0  0  0  0  0  0  0
  1  2  1  0
  2  8  1  0
  3  2  1  0
  3  4  1  6
  4  5  1  0
  3  6  1  0
  6  9  1  0
  6  7  2  0
M  RGP  2   8   1   9   2
V    8 *
V    9 *
M  END
>  <m_name>  (45)
N-Methyl-Serine

>  <symbol>  (45)
meS

>  <m_abbr>  (45)
meS

>  <m_type>  (45)
aa

>  <m_subtype>  (45)
non-natural

>  <m_Rgroups>  (45)
H,OH,None,None

>  <m_RgroupIdx>  (45)
7,8,None,None

>  <m_attachmentPointIdx>  (45)
1,5,None,None

>  <natAnalog>  (45)
S

>  <pdbName>  (45)
MBU

$$$$

     RDKit          2D

 10  9  0  0  0  0  0  0  0  0999 V2000
    0.0000   -1.4289    0.0000 C   0  0  0  0  0  0  0  0  0  0  0  0
    0.8250   -1.4289    0.0000 C   0  0  0  0  0  0  0  0  0  0  0  0
    1.2375   -2.1434    0.0000 O   0  0  0  0  0  0  0  0  0  0  0  0
    1.2375   -0.7145    0.0000 C   0  0  0  0  0  0  0  0  0  0  0  0
    2.0625   -0.7145    0.0000 N   0  0  0  0  0  0  0  0  0  0  0  0
    2.4750    0.0000    0.0000 C   0  0  0  0  0  0  0  0  0  0  0  0
    0.8250    0.0000    0.0000 C   0  0  0  0  0  0  0  0  0  0  0  0
    0.0000    0.0000    0.0000 O   0  0  0  0  0  0  0  0  0  0  0  0
    2.4750   -1.4289    0.0000 R#  0  0  0  0  0  0  0  0  0  0  0  0
    1.2375    0.7145    0.0000 R#  0  0  0  0  0  0  0  0  0  0  0  0
  2  1  1  6
  2  3  1  0
  2  4  1  0
  4  5  1  1
  5  6  1  0
  5  9  1  0
  4  7  1  0
  7 10  1  0
  7  8  2  0
M  RGP  2   9   1  10   2
V    9 *
V   10 *
M  END
>  <m_name>  (46)
N-Methyl-Threonine

>  <symbol>  (46)
meT

>  <m_abbr>  (46)
meT

>  <m_type>  (46)
aa

>  <m_subtype>  (46)
non-natural

>  <m_Rgroups>  (46)
H,OH,None,None

>  <m_RgroupIdx>  (46)
8,9,None,None

>  <m_attachmentPointIdx>  (46)
4,6,None,None

>  <natAnalog>  (46)
T

>  <pdbName>  (46)
MCC

$$$$

     RDKit          2D

 10  9  0  0  0  0  0  0  0  0999 V2000
    0.0000   -1.4289    0.0000 C   0  0  0  0  0  0  0  0  0  0  0  0
    0.8250   -1.4289    0.0000 C   0  0  0  0  0  0  0  0  0  0  0  0
    1.2375   -2.1434    0.0000 C   0  0  0  0  0  0  0  0  0  0  0  0
    1.2375   -0.7145    0.0000 C   0  0  0  0  0  0  0  0  0  0  0  0
    2.0625   -0.7145    0.0000 N   0  0  0  0  0  0  0  0  0  0  0  0
    2.4750    0.0000    0.0000 C   0  0  0  0  0  0  0  0  0  0  0  0
    0.8250    0.0000    0.0000 C   0  0  0  0  0  0  0  0  0  0  0  0
    0.0000    0.0000    0.0000 O   0  0  0  0  0  0  0  0  0  0  0  0
    2.4750   -1.4289    0.0000 R#  0  0  0  0  0  0  0  0  0  0  0  0
    1.2375    0.7145    0.0000 R#  0  0  0  0  0  0  0  0  0  0  0  0
  1  2  1  0
  2  3  1  0
  4  2  1  1
  4  5  1  0
  5  6  1  0
  5  9  1  0
  4  7  1  0
  7 10  1  0
  7  8  2  0
M  RGP  2   9   1  10   2
V    9 *
V   10 *
M  END
>  <m_name>  (47)
N-Methyl-Valine

>  <symbol>  (47)
meV

>  <m_abbr>  (47)
meV

>  <m_type>  (47)
aa

>  <m_subtype>  (47)
non-natural

>  <m_Rgroups>  (47)
H,OH,None,None

>  <m_RgroupIdx>  (47)
8,9,None,None

>  <m_attachmentPointIdx>  (47)
4,6,None,None

>  <natAnalog>  (47)
V

>  <pdbName>  (47)
MC6

$$$$

     RDKit          2D

 15 15  0  0  0  0  0  0  0  0999 V2000
   -0.7145    3.7125    0.0000 C   0  0  0  0  0  0  0  0  0  0  0  0
    0.0000    3.3000    0.0000 N   0  0  0  0  0  0  0  0  0  0  0  0
    0.0000    2.4750    0.0000 C   0  0  0  0  0  0  0  0  0  0  0  0
    0.7145    2.0625    0.0000 C   0  0  0  0  0  0  0  0  0  0  0  0
    0.7145    1.2375    0.0000 C   0  0  0  0  0  0  0  0  0  0  0  0
    1.4289    0.8250    0.0000 C   0  0  0  0  0  0  0  0  0  0  0  0
    1.4289    0.0000    0.0000 C   0  0  0  0  0  0  0  0  0  0  0  0
    0.7145   -0.4125    0.0000 C   0  0  0  0  0  0  0  0  0  0  0  0
    0.7145   -1.2375    0.0000 O   0  0  0  0  0  0  0  0  0  0  0  0
    0.0000    0.0000    0.0000 C   0  0  0  0  0  0  0  0  0  0  0  0
    0.0000    0.8250    0.0000 C   0  0  0  0  0  0  0  0  0  0  0  0
   -0.7145    2.0625    0.0000 C   0  0  0  0  0  0  0  0  0  0  0  0
   -1.4289    2.4750    0.0000 O   0  0  0  0  0  0  0  0  0  0  0  0
    0.7145    3.7125    0.0000 R#  0  0  0  0  0  0  0  0  0  0  0  0
   -0.7145    1.2375    0.0000 R#  0  0  0  0  0  0  0  0  0  0  0  0
  1  2  1  0
  2 14  1  0
  3  2  1  0
  3  4  1  1
  4  5  1  0
  5  6  2  0
  6  7  1  0
  7  8  2  0
  8  9  1  0
  8 10  1  0
 10 11  2  0
  5 11  1  0
  3 12  1  0
 12 15  1  0
 12 13  2  0
M  RGP  2  14   1  15   2
V   14 *
V   15 *
M  END
>  <m_name>  (48)
N-Methyl-Tyrosine

>  <symbol>  (48)
meY

>  <m_abbr>  (48)
meY

>  <m_type>  (48)
aa

>  <m_subtype>  (48)
non-natural

>  <m_Rgroups>  (48)
H,OH,None,None

>  <m_RgroupIdx>  (48)
13,14,None,None

>  <m_attachmentPointIdx>  (48)
1,11,None,None

>  <natAnalog>  (48)
Y

>  <pdbName>  (48)
MC7

$$$$

     RDKit          2D

 12 11  0  0  0  0  0  0  0  0999 V2000
    4.5375    3.5724    0.0000 C   0  0  0  0  0  0  0  0  0  0  0  0
    3.7125    3.5724    0.0000 N   0  0  0  0  0  0  0  0  0  0  0  0
    3.3000    2.8579    0.0000 C   0  0  0  0  0  0  0  0  0  0  0  0
    2.4750    2.8579    0.0000 C   0  0  0  0  0  0  0  0  0  0  0  0
    2.0625    2.1434    0.0000 C   0  0  0  0  0  0  0  0  0  0  0  0
    1.2375    2.1434    0.0000 C   0  0  0  0  0  0  0  0  0  0  0  0
    0.8250    2.8579    0.0000 O   0  0  0  0  0  0  0  0  0  0  0  0
    3.7125    2.1434    0.0000 C   0  0  0  0  0  0  0  0  0  0  0  0
    3.3000    1.4289    0.0000 O   0  0  0  0  0  0  0  0  0  0  0  0
    3.3000    4.2868    0.0000 R#  0  0  0  0  0  0  0  0  0  0  0  0
    0.8250    1.4289    0.0000 R#  0  0  0  0  0  0  0  0  0  0  0  0
    4.5375    2.1434    0.0000 R#  0  0  0  0  0  0  0  0  0  0  0  0
  1  2  1  0
  2 10  1  0
  3  2  1  0
  3  4  1  6
  4  5  1  0
  5  6  1  0
  6 11  1  0
  6  7  2  0
  3  8  1  0
  8 12  1  0
  8  9  2  0
M  RGP  3  10   1  11   3  12   2
V   10 *
V   11 *
V   12 *
M  END
>  <m_name>  (49)
N-Methyl-Glutamic acid

>  <symbol>  (49)
meE

>  <m_abbr>  (49)
meE

>  <m_type>  (49)
aa

>  <m_subtype>  (49)
non-natural

>  <m_Rgroups>  (49)
H,OH,OH,None

>  <m_RgroupIdx>  (49)
9,11,10,None

>  <m_attachmentPointIdx>  (49)
1,7,5,None

>  <natAnalog>  (49)
E

>  <pdbName>  (49)
MDI

$$$$

     RDKit          2D

  7  6  0  0  0  0  0  0  0  0999 V2000
    1.2375    2.1434    0.0000 C   0  0  0  0  0  0  0  0  0  0  0  0
    0.8250    1.4289    0.0000 N   0  0  0  0  0  0  0  0  0  0  0  0
    1.2375    0.7145    0.0000 C   0  0  0  0  0  0  0  0  0  0  0  0
    0.8250    0.0000    0.0000 C   0  0  0  0  0  0  0  0  0  0  0  0
    0.0000    0.0000    0.0000 O   0  0  0  0  0  0  0  0  0  0  0  0
    0.0000    1.4289    0.0000 R#  0  0  0  0  0  0  0  0  0  0  0  0
    1.2375   -0.7145    0.0000 R#  0  0  0  0  0  0  0  0  0  0  0  0
  1  2  1  0
  2  6  1  0
  2  3  1  0
  3  4  1  0
  4  7  1  0
  4  5  2  0
M  RGP  2   6   1   7   2
V    6 *
V    7 *
M  END
>  <m_name>  (50)
Sarcosine (N-Methyl-Glycine)

>  <symbol>  (50)
meG

>  <m_abbr>  (50)
meG

>  <m_type>  (50)
aa

>  <m_subtype>  (50)
non-natural

>  <m_Rgroups>  (50)
H,OH,None,None

>  <m_RgroupIdx>  (50)
5,6,None,None

>  <m_attachmentPointIdx>  (50)
1,3,None,None

>  <natAnalog>  (50)
G

>  <pdbName>  (50)
MDM

$$$$

     RDKit          2D

 11 10  0  0  0  0  0  0  0  0999 V2000
    0.5230    0.5230    0.0000 C   0  0  0  0  0  0  0  0  0  0  0  0
    1.2375    0.1105    0.0000 C   0  0  0  0  0  0  0  0  0  0  0  0
    1.2375   -0.7145    0.0000 C   0  0  0  0  0  0  0  0  0  0  0  0
    0.5230   -1.1270    0.0000 C   0  0  0  0  0  0  0  0  0  0  0  0
    1.9520   -1.1270    0.0000 C   0  0  0  0  0  0  0  0  0  0  0  0
    1.9520   -1.9520    0.0000 N   0  0  0  0  0  0  0  0  0  0  0  0
    2.6664   -2.3645    0.0000 C   0  0  0  0  0  0  0  0  0  0  0  0
    2.6664   -0.7145    0.0000 C   0  0  0  0  0  0  0  0  0  0  0  0
    3.3809   -1.1270    0.0000 O   0  0  0  0  0  0  0  0  0  0  0  0
    1.2375   -2.3645    0.0000 R#  0  0  0  0  0  0  0  0  0  0  0  0
    2.6664    0.1105    0.0000 R#  0  0  0  0  0  0  0  0  0  0  0  0
  1  2  1  0
  3  2  1  0
  3  4  1  1
  3  5  1  0
  5  6  1  1
  6  7  1  0
  6 10  1  0
  5  8  1  0
  8 11  1  0
  8  9  2  0
M  RGP  2  10   1  11   2
V   10 *
V   11 *
M  END
>  <m_name>  (51)
N-Methyl-Isoleucine

>  <symbol>  (51)
meI

>  <m_abbr>  (51)
meI

>  <m_type>  (51)
aa

>  <m_subtype>  (51)
non-natural

>  <m_Rgroups>  (51)
H,OH,None,None

>  <m_RgroupIdx>  (51)
9,10,None,None

>  <m_attachmentPointIdx>  (51)
5,7,None,None

>  <natAnalog>  (51)
I

>  <pdbName>  (51)
MDT

$$$$

     RDKit          2D

 13 12  0  0  0  0  0  0  0  0999 V2000
    6.0983    4.8196    0.0000 C   0  0  0  0  0  0  0  0  0  0  0  0
    5.2882    4.9755    0.0000 N   0  0  0  0  0  0  0  0  0  0  0  0
    4.7481    4.3519    0.0000 C   0  0  0  0  0  0  0  0  0  0  0  0
    3.9379    4.5078    0.0000 C   0  0  0  0  0  0  0  0  0  0  0  0
    3.3979    3.8842    0.0000 C   0  0  0  0  0  0  0  0  0  0  0  0
    2.5877    4.0401    0.0000 C   0  0  0  0  0  0  0  0  0  0  0  0
    2.0476    3.4164    0.0000 C   0  0  0  0  0  0  0  0  0  0  0  0
    1.2375    3.5724    0.0000 N   0  0  0  0  0  0  0  0  0  0  0  0
    5.0181    3.5724    0.0000 C   0  0  0  0  0  0  0  0  0  0  0  0
    4.4780    2.9487    0.0000 O   0  0  0  0  0  0  0  0  0  0  0  0
    5.0181    5.7551    0.0000 R#  0  0  0  0  0  0  0  0  0  0  0  0
    0.6974    2.9487    0.0000 R#  0  0  0  0  0  0  0  0  0  0  0  0
    5.8283    3.4164    0.0000 R#  0  0  0  0  0  0  0  0  0  0  0  0
  1  2  1  0
  2 11  1  0
  3  2  1  0
  3  4  1  6
  4  5  1  0
  5  6  1  0
  6  7  1  0
  7  8  1  0
  8 12  1  0
  3  9  1  0
  9 13  1  0
  9 10  2  0
M  RGP  3  11   1  12   3  13   2
V   11 *
V   12 *
V   13 *
M  END
>  <m_name>  (52)
N-Methyl-Lysine

>  <symbol>  (52)
meK

>  <m_abbr>  (52)
meK

>  <m_type>  (52)
aa

>  <m_subtype>  (52)
non-natural

>  <m_Rgroups>  (52)
H,OH,H,None

>  <m_RgroupIdx>  (52)
10,12,11,None

>  <m_attachmentPointIdx>  (52)
1,8,7,None

>  <natAnalog>  (52)
K

>  <pdbName>  (52)
MFF

$$$$

     RDKit          2D

 11 10  0  0  0  0  0  0  0  0999 V2000
    0.8250   -1.4289    0.0000 C   0  0  0  0  0  0  0  0  0  0  0  0
    1.2375   -2.1434    0.0000 S   0  0  0  0  0  0  0  0  0  0  0  0
    2.0625   -2.1434    0.0000 C   0  0  0  0  0  0  0  0  0  0  0  0
    2.4750   -2.8579    0.0000 C   0  0  0  0  0  0  0  0  0  0  0  0
    3.3000   -2.8579    0.0000 C   0  0  0  0  0  0  0  0  0  0  0  0
    3.7125   -3.5724    0.0000 N   0  0  0  0  0  0  0  0  0  0  0  0
    4.5375   -3.5724    0.0000 C   0  0  0  0  0  0  0  0  0  0  0  0
    3.7125   -2.1434    0.0000 C   0  0  0  0  0  0  0  0  0  0  0  0
    4.5375   -2.1434    0.0000 O   0  0  0  0  0  0  0  0  0  0  0  0
    3.3000   -4.2868    0.0000 R#  0  0  0  0  0  0  0  0  0  0  0  0
    3.3000   -1.4289    0.0000 R#  0  0  0  0  0  0  0  0  0  0  0  0
  1  2  1  0
  2  3  1  0
  3  4  1  0
  5  4  1  1
  5  6  1  0
  6  7  1  0
  6 10  1  0
  5  8  1  0
  8 11  1  0
  8  9  2  0
M  RGP  2  10   1  11   2
V   10 *
V   11 *
M  END
>  <m_name>  (53)
N-Methyl-Methionine

>  <symbol>  (53)
meM

>  <m_abbr>  (53)
meM

>  <m_type>  (53)
aa

>  <m_subtype>  (53)
non-natural

>  <m_Rgroups>  (53)
H,OH,None,None

>  <m_RgroupIdx>  (53)
9,10,None,None

>  <m_attachmentPointIdx>  (53)
5,7,None,None

>  <natAnalog>  (53)
M

>  <pdbName>  (53)
MFI

$$$$

     RDKit          2D

 11 10  0  0  0  0  0  0  0  0999 V2000
    2.6664   -2.3645    0.0000 C   0  0  0  0  0  0  0  0  0  0  0  0
    1.9520   -1.9520    0.0000 N   0  0  0  0  0  0  0  0  0  0  0  0
    1.9520   -1.1270    0.0000 C   0  0  0  0  0  0  0  0  0  0  0  0
    1.2375   -0.7145    0.0000 C   0  0  0  0  0  0  0  0  0  0  0  0
    1.2375    0.1105    0.0000 C   0  0  0  0  0  0  0  0  0  0  0  0
    0.5230    0.5230    0.0000 N   0  0  0  0  0  0  0  0  0  0  0  0
    1.9520    0.5230    0.0000 O   0  0  0  0  0  0  0  0  0  0  0  0
    2.6664   -0.7145    0.0000 C   0  0  0  0  0  0  0  0  0  0  0  0
    3.3809   -1.1270    0.0000 O   0  0  0  0  0  0  0  0  0  0  0  0
    1.2375   -2.3645    0.0000 R#  0  0  0  0  0  0  0  0  0  0  0  0
    2.6664    0.1105    0.0000 R#  0  0  0  0  0  0  0  0  0  0  0  0
  1  2  1  0
  2 10  1  0
  3  2  1  0
  3  4  1  1
  4  5  1  0
  5  6  1  0
  5  7  2  0
  3  8  1  0
  8 11  1  0
  8  9  2  0
M  RGP  2  10   1  11   2
V   10 *
V   11 *
M  END
>  <m_name>  (54)
N-Methyl-Asparagine

>  <symbol>  (54)
meN

>  <m_abbr>  (54)
meN

>  <m_type>  (54)
aa

>  <m_subtype>  (54)
non-natural

>  <m_Rgroups>  (54)
H,OH,None,None

>  <m_RgroupIdx>  (54)
9,10,None,None

>  <m_attachmentPointIdx>  (54)
1,7,None,None

>  <natAnalog>  (54)
N

>  <pdbName>  (54)
MFL

$$$$

     RDKit          2D

 12 11  0  0  0  0  0  0  0  0999 V2000
    4.5375    3.5724    0.0000 C   0  0  0  0  0  0  0  0  0  0  0  0
    3.7125    3.5724    0.0000 N   0  0  0  0  0  0  0  0  0  0  0  0
    3.3000    2.8579    0.0000 C   0  0  0  0  0  0  0  0  0  0  0  0
    2.4750    2.8579    0.0000 C   0  0  0  0  0  0  0  0  0  0  0  0
    2.0625    2.1434    0.0000 C   0  0  0  0  0  0  0  0  0  0  0  0
    1.2375    2.1434    0.0000 C   0  0  0  0  0  0  0  0  0  0  0  0
    0.8250    1.4289    0.0000 N   0  0  0  0  0  0  0  0  0  0  0  0
    0.8250    2.8579    0.0000 O   0  0  0  0  0  0  0  0  0  0  0  0
    3.7125    2.1434    0.0000 C   0  0  0  0  0  0  0  0  0  0  0  0
    3.3000    1.4289    0.0000 O   0  0  0  0  0  0  0  0  0  0  0  0
    3.3000    4.2868    0.0000 R#  0  0  0  0  0  0  0  0  0  0  0  0
    4.5375    2.1434    0.0000 R#  0  0  0  0  0  0  0  0  0  0  0  0
  1  2  1  0
  2 11  1  0
  3  2  1  0
  3  4  1  6
  4  5  1  0
  5  6  1  0
  6  7  1  0
  6  8  2  0
  3  9  1  0
  9 12  1  0
  9 10  2  0
M  RGP  2  11   1  12   2
V   11 *
V   12 *
M  END
>  <m_name>  (55)
N-Methyl-Glutamine

>  <symbol>  (55)
meQ

>  <m_abbr>  (55)
meQ

>  <m_type>  (55)
aa

>  <m_subtype>  (55)
non-natural

>  <m_Rgroups>  (55)
H,OH,None,None

>  <m_RgroupIdx>  (55)
10,11,None,None

>  <m_attachmentPointIdx>  (55)
1,8,None,None

>  <natAnalog>  (55)
Q

>  <pdbName>  (55)
MFS

$$$$

     RDKit          2D

 10  9  0  0  0  0  0  0  0  0999 V2000
    2.6664   -2.3645    0.0000 C   0  0  0  0  0  0  0  0  0  0  0  0
    1.9520   -1.9520    0.0000 N   0  0  0  0  0  0  0  0  0  0  0  0
    1.9520   -1.1270    0.0000 C   0  0  0  0  0  0  0  0  0  0  0  0
    1.2375   -0.7145    0.0000 C   0  0  0  0  0  0  0  0  0  0  0  0
    1.2375    0.1105    0.0000 S   0  0  0  0  0  0  0  0  0  0  0  0
    2.6664   -0.7145    0.0000 C   0  0  0  0  0  0  0  0  0  0  0  0
    3.3809   -1.1270    0.0000 O   0  0  0  0  0  0  0  0  0  0  0  0
    1.2375   -2.3645    0.0000 R#  0  0  0  0  0  0  0  0  0  0  0  0
    0.5230    0.5230    0.0000 R#  0  0  0  0  0  0  0  0  0  0  0  0
    2.6664    0.1105    0.0000 R#  0  0  0  0  0  0  0  0  0  0  0  0
  1  2  1  0
  2  8  1  0
  3  2  1  0
  3  4  1  1
  4  5  1  0
  5  9  1  0
  3  6  1  0
  6 10  1  0
  6  7  2  0
M  RGP  3   8   1   9   3  10   2
V    8 *
V    9 *
V   10 *
M  END
>  <m_name>  (56)
N-Methyl-Cysteine

>  <symbol>  (56)
meC

>  <m_abbr>  (56)
meC

>  <m_type>  (56)
aa

>  <m_subtype>  (56)
non-natural

>  <m_Rgroups>  (56)
H,OH,H,None

>  <m_RgroupIdx>  (56)
7,9,8,None

>  <m_attachmentPointIdx>  (56)
1,5,4,None

>  <natAnalog>  (56)
C

>  <pdbName>  (56)
MF0

$$$$

     RDKit          2D

 14 13  0  0  0  0  0  0  0  0999 V2000
    6.0983    4.8196    0.0000 C   0  0  0  0  0  0  0  0  0  0  0  0
    5.2882    4.9755    0.0000 N   0  0  0  0  0  0  0  0  0  0  0  0
    4.7481    4.3519    0.0000 C   0  0  0  0  0  0  0  0  0  0  0  0
    3.9379    4.5078    0.0000 C   0  0  0  0  0  0  0  0  0  0  0  0
    3.3979    3.8842    0.0000 C   0  0  0  0  0  0  0  0  0  0  0  0
    2.5877    4.0401    0.0000 C   0  0  0  0  0  0  0  0  0  0  0  0
    2.0476    3.4164    0.0000 N   0  0  0  0  0  0  0  0  0  0  0  0
    1.2375    3.5724    0.0000 C   0  0  0  0  0  0  0  0  0  0  0  0
    0.6974    2.9487    0.0000 N   0  0  0  0  0  0  0  0  0  0  0  0
    0.9675    4.3519    0.0000 N   0  0  0  0  0  0  0  0  0  0  0  0
    5.0181    3.5724    0.0000 C   0  0  0  0  0  0  0  0  0  0  0  0
    4.4780    2.9487    0.0000 O   0  0  0  0  0  0  0  0  0  0  0  0
    5.0181    5.7551    0.0000 R#  0  0  0  0  0  0  0  0  0  0  0  0
    5.8283    3.4164    0.0000 R#  0  0  0  0  0  0  0  0  0  0  0  0
  1  2  1  0
  2 13  1  0
  3  2  1  0
  3  4  1  6
  4  5  1  0
  5  6  1  0
  6  7  1  0
  7  8  1  0
  8  9  1  0
  8 10  2  0
  3 11  1  0
 11 14  1  0
 11 12  2  0
M  RGP  2  13   1  14   2
V   13 *
V   14 *
M  END
>  <m_name>  (57)
N-Methyl-Arginine

>  <symbol>  (57)
meR

>  <m_abbr>  (57)
meR

>  <m_type>  (57)
aa

>  <m_subtype>  (57)
non-natural

>  <m_Rgroups>  (57)
H,OH,None,None

>  <m_RgroupIdx>  (57)
12,13,None,None

>  <m_attachmentPointIdx>  (57)
1,10,None,None

>  <natAnalog>  (57)
R

>  <pdbName>  (57)
MF6

$$$$

     RDKit          2D

 17 18  0  0  0  0  0  0  0  0999 V2000
   -0.9851   -3.2777    0.0000 C   0  0  0  0  0  0  0  0  0  0  0  0
   -0.1781   -3.1062    0.0000 N   0  0  0  0  0  0  0  0  0  0  0  0
    0.0768   -2.3215    0.0000 C   0  0  0  0  0  0  0  0  0  0  0  0
    0.8838   -2.1500    0.0000 C   0  0  0  0  0  0  0  0  0  0  0  0
    1.1387   -1.3654    0.0000 C   0  0  0  0  0  0  0  0  0  0  0  0
    0.6538   -0.6979    0.0000 C   0  0  0  0  0  0  0  0  0  0  0  0
    1.1387   -0.0305    0.0000 N   0  0  0  0  0  0  0  0  0  0  0  0
    1.9233   -0.2854    0.0000 C   0  0  0  0  0  0  0  0  0  0  0  0
    2.6378    0.1271    0.0000 C   0  0  0  0  0  0  0  0  0  0  0  0
    3.3523   -0.2854    0.0000 C   0  0  0  0  0  0  0  0  0  0  0  0
    3.3523   -1.1104    0.0000 C   0  0  0  0  0  0  0  0  0  0  0  0
    2.6378   -1.5229    0.0000 C   0  0  0  0  0  0  0  0  0  0  0  0
    1.9233   -1.1104    0.0000 C   0  0  0  0  0  0  0  0  0  0  0  0
   -0.4752   -1.7084    0.0000 C   0  0  0  0  0  0  0  0  0  0  0  0
   -1.2822   -1.8800    0.0000 O   0  0  0  0  0  0  0  0  0  0  0  0
    0.3739   -3.7192    0.0000 R#  0  0  0  0  0  0  0  0  0  0  0  0
   -0.2203   -0.9238    0.0000 R#  0  0  0  0  0  0  0  0  0  0  0  0
  1  2  1  0
  2 16  1  0
  3  2  1  0
  3  4  1  6
  4  5  1  0
  5  6  2  0
  6  7  1  0
  7  8  1  0
  8  9  2  0
  9 10  1  0
 10 11  2  0
 11 12  1  0
 12 13  2  0
  5 13  1  0
  8 13  1  0
  3 14  1  0
 14 17  1  0
 14 15  2  0
M  RGP  2  16   1  17   2
V   16 *
V   17 *
M  END
>  <m_name>  (58)
N-Methyl-Tryptophan

>  <symbol>  (58)
meW

>  <m_abbr>  (58)
meW

>  <m_type>  (58)
aa

>  <m_subtype>  (58)
non-natural

>  <m_Rgroups>  (58)
H,OH,None,None

>  <m_RgroupIdx>  (58)
15,16,None,None

>  <m_attachmentPointIdx>  (58)
1,13,None,None

>  <natAnalog>  (58)
W

>  <pdbName>  (58)
MF9

$$$$

     RDKit          2D

 14 14  0  0  0  0  0  0  0  0999 V2000
   -0.7145    3.7125    0.0000 C   0  0  0  0  0  0  0  0  0  0  0  0
    0.0000    3.3000    0.0000 N   0  0  0  0  0  0  0  0  0  0  0  0
    0.0000    2.4750    0.0000 C   0  0  0  0  0  0  0  0  0  0  0  0
    0.7145    2.0625    0.0000 C   0  0  0  0  0  0  0  0  0  0  0  0
    0.7145    1.2375    0.0000 C   0  0  0  0  0  0  0  0  0  0  0  0
    1.4289    0.8250    0.0000 C   0  0  0  0  0  0  0  0  0  0  0  0
    1.4289    0.0000    0.0000 C   0  0  0  0  0  0  0  0  0  0  0  0
    0.7145   -0.4125    0.0000 C   0  0  0  0  0  0  0  0  0  0  0  0
    0.0000    0.0000    0.0000 C   0  0  0  0  0  0  0  0  0  0  0  0
    0.0000    0.8250    0.0000 C   0  0  0  0  0  0  0  0  0  0  0  0
   -0.7145    2.0625    0.0000 C   0  0  0  0  0  0  0  0  0  0  0  0
   -1.4289    2.4750    0.0000 O   0  0  0  0  0  0  0  0  0  0  0  0
    0.7145    3.7125    0.0000 R#  0  0  0  0  0  0  0  0  0  0  0  0
   -0.7145    1.2375    0.0000 R#  0  0  0  0  0  0  0  0  0  0  0  0
  1  2  1  0
  2 13  1  0
  3  2  1  0
  3  4  1  1
  4  5  1  0
  5  6  2  0
  6  7  1  0
  7  8  2  0
  8  9  1  0
  9 10  2  0
  5 10  1  0
  3 11  1  0
 11 14  1  0
 11 12  2  0
M  RGP  2  13   1  14   2
V   13 *
V   14 *
M  END
>  <m_name>  (59)
N-Methyl-Phenylalanine

>  <symbol>  (59)
meF

>  <m_abbr>  (59)
meF

>  <m_type>  (59)
aa

>  <m_subtype>  (59)
non-natural

>  <m_Rgroups>  (59)
H,OH,None,None

>  <m_RgroupIdx>  (59)
12,13,None,None

>  <m_attachmentPointIdx>  (59)
1,10,None,None

>  <natAnalog>  (59)
F

>  <pdbName>  (59)
MGU

$$$$

     RDKit          2D

 13 13  0  0  0  0  0  0  0  0999 V2000
   -0.8612    3.5893    0.0000 C   0  0  0  0  0  0  0  0  0  0  0  0
   -0.1467    3.1768    0.0000 N   0  0  0  0  0  0  0  0  0  0  0  0
   -0.1467    2.3518    0.0000 C   0  0  0  0  0  0  0  0  0  0  0  0
    0.5678    1.9393    0.0000 C   0  0  0  0  0  0  0  0  0  0  0  0
    0.5678    1.1143    0.0000 C   0  0  0  0  0  0  0  0  0  0  0  0
    1.2352    0.6294    0.0000 C   0  0  0  0  0  0  0  0  0  0  0  0
    0.9803   -0.1553    0.0000 N   0  0  0  0  0  0  0  0  0  0  0  0
    0.1553   -0.1553    0.0000 C   0  0  0  0  0  0  0  0  0  0  0  0
   -0.0997    0.6294    0.0000 N   0  0  0  0  0  0  0  0  0  0  0  0
   -0.8612    1.9393    0.0000 C   0  0  0  0  0  0  0  0  0  0  0  0
   -1.5757    2.3518    0.0000 O   0  0  0  0  0  0  0  0  0  0  0  0
    0.5678    3.5893    0.0000 R#  0  0  0  0  0  0  0  0  0  0  0  0
   -0.8612    1.1143    0.0000 R#  0  0  0  0  0  0  0  0  0  0  0  0
  1  2  1  0
  2 12  1  0
  3  2  1  0
  3  4  1  1
  4  5  1  0
  5  6  2  0
  6  7  1  0
  7  8  1  0
  8  9  2  0
  5  9  1  0
  3 10  1  0
 10 13  1  0
 10 11  2  0
M  RGP  2  12   1  13   2
V   12 *
V   13 *
M  END
>  <m_name>  (60)
N-Methyl-Histidine

>  <symbol>  (60)
meH

>  <m_abbr>  (60)
meH

>  <m_type>  (60)
aa

>  <m_subtype>  (60)
non-natural

>  <m_Rgroups>  (60)
H,OH,None,None

>  <m_RgroupIdx>  (60)
11,12,None,None

>  <m_attachmentPointIdx>  (60)
1,9,None,None

>  <natAnalog>  (60)
H

>  <pdbName>  (60)
MG3

$$$$

     RDKit          2D

 11 10  0  0  0  0  0  0  0  0999 V2000
    0.5230    0.5230    0.0000 C   0  0  0  0  0  0  0  0  0  0  0  0
    1.2375    0.1105    0.0000 C   0  0  0  0  0  0  0  0  0  0  0  0
    1.9520    0.5230    0.0000 C   0  0  0  0  0  0  0  0  0  0  0  0
    1.2375   -0.7145    0.0000 C   0  0  0  0  0  0  0  0  0  0  0  0
    1.9520   -1.1270    0.0000 C   0  0  0  0  0  0  0  0  0  0  0  0
    1.9520   -1.9520    0.0000 N   0  0  0  0  0  0  0  0  0  0  0  0
    2.6664   -2.3645    0.0000 C   0  0  0  0  0  0  0  0  0  0  0  0
    2.6664   -0.7145    0.0000 C   0  0  0  0  0  0  0  0  0  0  0  0
    3.3809   -1.1270    0.0000 O   0  0  0  0  0  0  0  0  0  0  0  0
    1.2375   -2.3645    0.0000 R#  0  0  0  0  0  0  0  0  0  0  0  0
    2.6664    0.1105    0.0000 R#  0  0  0  0  0  0  0  0  0  0  0  0
  1  2  1  0
  2  3  1  0
  2  4  1  0
  5  4  1  1
  5  6  1  0
  6  7  1  0
  6 10  1  0
  5  8  1  0
  8 11  1  0
  8  9  2  0
M  RGP  2  10   1  11   2
V   10 *
V   11 *
M  END
>  <m_name>  (61)
N-Methyl-Leucine

>  <symbol>  (61)
meL

>  <m_abbr>  (61)
meL

>  <m_type>  (61)
aa

>  <m_subtype>  (61)
non-natural

>  <m_Rgroups>  (61)
H,OH,None,None

>  <m_RgroupIdx>  (61)
9,10,None,None

>  <m_attachmentPointIdx>  (61)
5,7,None,None

>  <natAnalog>  (61)
L

>  <pdbName>  (61)
MG4

$$$$

     RDKit          2D

 10  9  0  0  0  0  0  0  0  0999 V2000
    0.8250   -1.4289    0.0000 C   0  0  0  0  0  0  0  0  0  0  0  0
    1.2375   -2.1434    0.0000 C   0  0  0  0  0  0  0  0  0  0  0  0
    2.0625   -2.1434    0.0000 C   0  0  0  0  0  0  0  0  0  0  0  0
    2.4750   -2.8579    0.0000 C   0  0  0  0  0  0  0  0  0  0  0  0
    3.3000   -2.8579    0.0000 C   0  0  0  0  0  0  0  0  0  0  0  0
    3.7125   -3.5724    0.0000 N   0  0  0  0  0  0  0  0  0  0  0  0
    3.7125   -2.1434    0.0000 C   0  0  0  0  0  0  0  0  0  0  0  0
    4.5375   -2.1434    0.0000 O   0  0  0  0  0  0  0  0  0  0  0  0
    4.5375   -3.5724    0.0000 R#  0  0  0  0  0  0  0  0  0  0  0  0
    3.3000   -1.4289    0.0000 R#  0  0  0  0  0  0  0  0  0  0  0  0
  1  2  1  0
  2  3  1  0
  3  4  1  0
  5  4  1  1
  5  6  1  0
  6  9  1  0
  5  7  1  0
  7 10  1  0
  7  8  2  0
M  RGP  2   9   1  10   2
V    9 *
V   10 *
M  END
>  <m_name>  (62)
Norleucine

>  <symbol>  (62)
Nle

>  <m_abbr>  (62)
Nle

>  <m_type>  (62)
aa

>  <m_subtype>  (62)
non-natural

>  <m_Rgroups>  (62)
H,OH,None,None

>  <m_RgroupIdx>  (62)
8,9,None,None

>  <m_attachmentPointIdx>  (62)
5,6,None,None

>  <natAnalog>  (62)
L

>  <pdbName>  (62)
NLF

$$$$

     RDKit          2D

  9  8  0  0  0  0  0  0  0  0999 V2000
    0.5230    0.5230    0.0000 C   0  0  0  0  0  0  0  0  0  0  0  0
    1.2375    0.1105    0.0000 C   0  0  0  0  0  0  0  0  0  0  0  0
    1.2375   -0.7145    0.0000 C   0  0  0  0  0  0  0  0  0  0  0  0
    1.9520   -1.1270    0.0000 C   0  0  0  0  0  0  0  0  0  0  0  0
    1.9520   -1.9520    0.0000 N   0  0  0  0  0  0  0  0  0  0  0  0
    2.6664   -0.7145    0.0000 C   0  0  0  0  0  0  0  0  0  0  0  0
    3.3809   -1.1270    0.0000 O   0  0  0  0  0  0  0  0  0  0  0  0
    2.6664   -2.3645    0.0000 R#  0  0  0  0  0  0  0  0  0  0  0  0
    2.6664    0.1105    0.0000 R#  0  0  0  0  0  0  0  0  0  0  0  0
  1  2  1  0
  2  3  1  0
  4  3  1  1
  4  5  1  0
  5  8  1  0
  4  6  1  0
  6  9  1  0
  6  7  2  0
M  RGP  2   8   1   9   2
V    8 *
V    9 *
M  END
>  <m_name>  (63)
Norvaline

>  <symbol>  (63)
Nva

>  <m_abbr>  (63)
Nva

>  <m_type>  (63)
aa

>  <m_subtype>  (63)
non-natural

>  <m_Rgroups>  (63)
H,OH,None,None

>  <m_RgroupIdx>  (63)
7,8,None,None

>  <m_attachmentPointIdx>  (63)
4,5,None,None

>  <natAnalog>  (63)
V

>  <pdbName>  (63)
NVF

$$$$

     RDKit          2D

 11 10  0  0  0  0  0  0  0  0999 V2000
    3.7125   -3.5724    0.0000 N   0  0  0  0  0  0  0  0  0  0  0  0
    3.3000   -2.8579    0.0000 C   0  0  0  0  0  0  0  0  0  0  0  0
    2.4750   -2.8579    0.0000 C   0  0  0  0  0  0  0  0  0  0  0  0
    2.0625   -2.1434    0.0000 C   0  0  0  0  0  0  0  0  0  0  0  0
    1.2375   -2.1434    0.0000 C   0  0  0  0  0  0  0  0  0  0  0  0
    0.8250   -1.4289    0.0000 N   0  0  0  0  0  0  0  0  0  0  0  0
    3.7125   -2.1434    0.0000 C   0  0  0  0  0  0  0  0  0  0  0  0
    4.5375   -2.1434    0.0000 O   0  0  0  0  0  0  0  0  0  0  0  0
    4.5375   -3.5724    0.0000 R#  0  0  0  0  0  0  0  0  0  0  0  0
    0.0000   -1.4289    0.0000 R#  0  0  0  0  0  0  0  0  0  0  0  0
    3.3000   -1.4289    0.0000 R#  0  0  0  0  0  0  0  0  0  0  0  0
  9  1  1  0
  2  1  1  0
  2  3  1  1
  3  4  1  0
  4  5  1  0
  5  6  1  0
  6 10  1  0
  2  7  1  0
  7 11  1  0
  7  8  2  0
M  RGP  3   9   1  10   3  11   2
V    9 *
V   10 *
V   11 *
M  END
>  <m_name>  (64)
L-ornithine

>  <symbol>  (64)
Orn

>  <m_abbr>  (64)
Orn

>  <m_type>  (64)
aa

>  <m_subtype>  (64)
non-natural

>  <m_Rgroups>  (64)
H,OH,H,None

>  <m_RgroupIdx>  (64)
8,10,9,None

>  <m_attachmentPointIdx>  (64)
0,6,5,None

>  <natAnalog>  (64)
K

>  <pdbName>  (64)
ORF

$$$$

     RDKit          2D

  9  8  0  0  0  0  0  0  0  0999 V2000
    0.5230   -1.9520    0.0000 C   0  0  0  0  0  0  0  0  0  0  0  0
    0.5230   -1.1270    0.0000 C   0  0  0  0  0  0  0  0  0  0  0  0
    1.2375   -0.7145    0.0000 C   0  0  0  0  0  0  0  0  0  0  0  0
    1.6500   -1.4289    0.0000 C   0  0  0  0  0  0  0  0  0  0  0  0
    1.9520   -0.3020    0.0000 N   0  0  0  0  0  0  0  0  0  0  0  0
    0.8250    0.0000    0.0000 C   0  0  0  0  0  0  0  0  0  0  0  0
    0.0000    0.0000    0.0000 O   0  0  0  0  0  0  0  0  0  0  0  0
    1.9520    0.5230    0.0000 R#  0  0  0  0  0  0  0  0  0  0  0  0
    1.2375    0.7145    0.0000 R#  0  0  0  0  0  0  0  0  0  0  0  0
  1  2  1  0
  3  2  1  0
  3  4  1  6
  3  5  1  0
  5  8  1  0
  3  6  1  0
  6  9  1  0
  6  7  2  0
M  RGP  2   8   1   9   2
V    8 *
V    9 *
M  END
>  <m_name>  (65)
Isovaline

>  <symbol>  (65)
Iva

>  <m_abbr>  (65)
Iva

>  <m_type>  (65)
aa

>  <m_subtype>  (65)
non-natural

>  <m_Rgroups>  (65)
H,OH,None,None

>  <m_RgroupIdx>  (65)
7,8,None,None

>  <m_attachmentPointIdx>  (65)
4,5,None,None

>  <natAnalog>  (65)
V

>  <pdbName>  (65)
6ZS

$$$$

     RDKit          2D

 10  9  0  0  0  0  0  0  0  0999 V2000
    0.5230    0.5230    0.0000 C   0  0  0  0  0  0  0  0  0  0  0  0
    1.2375    0.1105    0.0000 C   0  0  0  0  0  0  0  0  0  0  0  0
    1.2375   -0.7145    0.0000 C   0  0  0  0  0  0  0  0  0  0  0  0
    0.5230   -1.1270    0.0000 C   0  0  0  0  0  0  0  0  0  0  0  0
    1.9520   -1.1270    0.0000 C   0  0  0  0  0  0  0  0  0  0  0  0
    1.9520   -1.9520    0.0000 N   0  0  0  0  0  0  0  0  0  0  0  0
    2.6664   -0.7145    0.0000 C   0  0  0  0  0  0  0  0  0  0  0  0
    3.3809   -1.1270    0.0000 O   0  0  0  0  0  0  0  0  0  0  0  0
    2.6664   -2.3645    0.0000 R#  0  0  0  0  0  0  0  0  0  0  0  0
    2.6664    0.1105    0.0000 R#  0  0  0  0  0  0  0  0  0  0  0  0
  1  2  1  0
  3  2  1  0
  3  4  1  6
  3  5  1  0
  5  6  1  1
  6  9  1  0
  5  7  1  0
  7 10  1  0
  7  8  2  0
M  RGP  2   9   1  10   2
V    9 *
V   10 *
M  END
>  <m_name>  (66)
L-allo-Isoleucine

>  <symbol>  (66)
aIle

>  <m_abbr>  (66)
aIle

>  <m_type>  (66)
aa

>  <m_subtype>  (66)
non-natural

>  <m_Rgroups>  (66)
H,OH,None,None

>  <m_RgroupIdx>  (66)
8,9,None,None

>  <m_attachmentPointIdx>  (66)
5,6,None,None

>  <natAnalog>  (66)
I

>  <pdbName>  (66)
AID

$$$$

     RDKit          2D

 11 10  0  0  0  0  0  0  0  0999 V2000
   10.4062   -3.0353    0.0000 N   0  0  0  0  0  0  0  0  0  0  0  0
    9.9937   -3.7498    0.0000 C   0  0  0  0  0  0  0  0  0  0  0  0
    9.1687   -3.7498    0.0000 C   0  0  0  0  0  0  0  0  0  0  0  0
    8.7562   -4.4643    0.0000 C   0  0  0  0  0  0  0  0  0  0  0  0
    7.9312   -4.4643    0.0000 C   0  0  0  0  0  0  0  0  0  0  0  0
    7.5187   -3.7498    0.0000 O   0  0  0  0  0  0  0  0  0  0  0  0
   10.4062   -4.4643    0.0000 C   0  0  0  0  0  0  0  0  0  0  0  0
    9.9937   -5.1788    0.0000 O   0  0  0  0  0  0  0  0  0  0  0  0
   11.2312   -3.0353    0.0000 R#  0  0  0  0  0  0  0  0  0  0  0  0
    7.5187   -5.1788    0.0000 R#  0  0  0  0  0  0  0  0  0  0  0  0
   11.2312   -4.4643    0.0000 R#  0  0  0  0  0  0  0  0  0  0  0  0
  9  1  1  0
  2  1  1  0
  2  3  1  6
  3  4  1  0
  4  5  1  0
  5 10  1  0
  5  6  2  0
  2  7  1  0
  7 11  1  0
  7  8  2  0
M  RGP  3   9   1  10   2  11   3
V    9 *
V   10 *
V   11 *
M  END
>  <m_name>  (67)
Gamma glutamic acid

>  <symbol>  (67)
gGlu

>  <m_abbr>  (67)
gGlu

>  <m_type>  (67)
aa

>  <m_subtype>  (67)
non-natural

>  <m_Rgroups>  (67)
H,OH,OH,None

>  <m_RgroupIdx>  (67)
8,9,10,None

>  <m_attachmentPointIdx>  (67)
0,4,6,None

>  <natAnalog>  (67)
E

>  <pdbName>  (67)
GGI

$$$$

     RDKit          2D

 10  9  0  0  0  0  0  0  0  0999 V2000
    3.7125    3.5724    0.0000 N   0  0  0  0  0  0  0  0  0  0  0  0
    3.3000    2.8579    0.0000 C   0  0  0  0  0  0  0  0  0  0  0  0
    2.4750    2.8579    0.0000 C   0  0  0  0  0  0  0  0  0  0  0  0
    2.0625    2.1434    0.0000 C   0  0  0  0  0  0  0  0  0  0  0  0
    1.2375    2.1434    0.0000 S   0  0  0  0  0  0  0  0  0  0  0  0
    3.7125    2.1434    0.0000 C   0  0  0  0  0  0  0  0  0  0  0  0
    3.3000    1.4289    0.0000 O   0  0  0  0  0  0  0  0  0  0  0  0
    4.5375    3.5724    0.0000 R#  0  0  0  0  0  0  0  0  0  0  0  0
    0.8250    1.4289    0.0000 R#  0  0  0  0  0  0  0  0  0  0  0  0
    4.5375    2.1434    0.0000 R#  0  0  0  0  0  0  0  0  0  0  0  0
  8  1  1  0
  2  1  1  0
  2  3  1  6
  3  4  1  0
  4  5  1  0
  5  9  1  0
  2  6  1  0
  6 10  1  0
  6  7  2  0
M  RGP  3   8   1   9   3  10   2
V    8 *
V    9 *
V   10 *
M  END
>  <m_name>  (68)
Homocysteine

>  <symbol>  (68)
Hcy

>  <m_abbr>  (68)
Hcy

>  <m_type>  (68)
aa

>  <m_subtype>  (68)
non-natural

>  <m_Rgroups>  (68)
H,OH,H,None

>  <m_RgroupIdx>  (68)
7,9,8,None

>  <m_attachmentPointIdx>  (68)
0,5,4,None

>  <natAnalog>  (68)
C

>  <pdbName>  (68)
HCB

$$$$

     RDKit          2D

  9  8  0  0  0  0  0  0  0  0999 V2000
    0.5230    0.5230    0.0000 O   0  0  0  0  0  0  0  0  0  0  0  0
    1.2375    0.1105    0.0000 C   0  0  0  0  0  0  0  0  0  0  0  0
    1.2375   -0.7145    0.0000 C   0  0  0  0  0  0  0  0  0  0  0  0
    1.9520   -1.1270    0.0000 C   0  0  0  0  0  0  0  0  0  0  0  0
    1.9520   -1.9520    0.0000 N   0  0  0  0  0  0  0  0  0  0  0  0
    2.6664   -0.7145    0.0000 C   0  0  0  0  0  0  0  0  0  0  0  0
    3.3809   -1.1270    0.0000 O   0  0  0  0  0  0  0  0  0  0  0  0
    2.6664   -2.3645    0.0000 R#  0  0  0  0  0  0  0  0  0  0  0  0
    2.6664    0.1105    0.0000 R#  0  0  0  0  0  0  0  0  0  0  0  0
  1  2  1  0
  2  3  1  0
  4  3  1  1
  4  5  1  0
  5  8  1  0
  4  6  1  0
  6  9  1  0
  6  7  2  0
M  RGP  2   8   1   9   2
V    8 *
V    9 *
M  END
>  <m_name>  (69)
Homoserine

>  <symbol>  (69)
Hse

>  <m_abbr>  (69)
Hse

>  <m_type>  (69)
aa

>  <m_subtype>  (69)
non-natural

>  <m_Rgroups>  (69)
H,OH,None,None

>  <m_RgroupIdx>  (69)
7,8,None,None

>  <m_attachmentPointIdx>  (69)
4,5,None,None

>  <natAnalog>  (69)
S

>  <pdbName>  (69)
HSB

$$$$

     RDKit          2D

 10 10  0  0  0  0  0  0  0  0999 V2000
    0.5678    1.9393    0.0000 O   0  0  0  0  0  0  0  0  0  0  0  0
    0.5678    1.1143    0.0000 C   0  0  0  0  0  0  0  0  0  0  0  0
    1.2352    0.6294    0.0000 C   0  0  0  0  0  0  0  0  0  0  0  0
    0.9803   -0.1553    0.0000 C   0  0  0  0  0  0  0  0  0  0  0  0
    0.1553   -0.1553    0.0000 N   0  0  0  0  0  0  0  0  0  0  0  0
   -0.0997    0.6294    0.0000 C   0  0  0  0  0  0  0  0  0  0  0  0
    1.4652   -0.8227    0.0000 C   0  0  0  0  0  0  0  0  0  0  0  0
    1.1296   -1.5764    0.0000 O   0  0  0  0  0  0  0  0  0  0  0  0
   -0.3297   -0.8227    0.0000 R#  0  0  0  0  0  0  0  0  0  0  0  0
    2.2857   -0.7365    0.0000 R#  0  0  0  0  0  0  0  0  0  0  0  0
  2  1  1  6
  2  3  1  0
  4  3  1  0
  4  5  1  0
  5  9  1  0
  5  6  1  0
  2  6  1  0
  4  7  1  1
  7 10  1  0
  7  8  2  0
M  RGP  2   9   1  10   2
V    9 *
V   10 *
M  END
>  <m_name>  (70)
4-Hydroxyproline

>  <symbol>  (70)
Hyp

>  <m_abbr>  (70)
Hyp

>  <m_type>  (70)
aa

>  <m_subtype>  (70)
non-natural

>  <m_Rgroups>  (70)
H,OH,None,None

>  <m_RgroupIdx>  (70)
8,9,None,None

>  <m_attachmentPointIdx>  (70)
4,6,None,None

>  <natAnalog>  (70)
P

>  <pdbName>  (70)
HYJ

$$$$

     RDKit          2D

 11 10  0  0  0  0  0  0  0  0999 V2000
    1.0312    1.0717    0.0000 N   0  0  0  0  0  0  0  0  0  0  0  0
    0.6187    0.3572    0.0000 C   0  0  0  0  0  0  0  0  0  0  0  0
   -0.2062    0.3572    0.0000 C   0  0  0  0  0  0  0  0  0  0  0  0
   -0.6187   -0.3572    0.0000 C   0  0  0  0  0  0  0  0  0  0  0  0
   -1.4437   -0.3572    0.0000 C   0  0  0  0  0  0  0  0  0  0  0  0
   -1.8562    0.3572    0.0000 O   0  0  0  0  0  0  0  0  0  0  0  0
    1.0312   -0.3572    0.0000 C   0  0  0  0  0  0  0  0  0  0  0  0
    0.6187   -1.0717    0.0000 O   0  0  0  0  0  0  0  0  0  0  0  0
    1.8562    1.0717    0.0000 R#  0  0  0  0  0  0  0  0  0  0  0  0
   -1.8562   -1.0717    0.0000 R#  0  0  0  0  0  0  0  0  0  0  0  0
    1.8562   -0.3572    0.0000 R#  0  0  0  0  0  0  0  0  0  0  0  0
  9  1  1  0
  2  1  1  0
  2  3  1  1
  3  4  1  0
  4  5  1  0
  5 10  1  0
  5  6  2  0
  2  7  1  0
  7 11  1  0
  7  8  2  0
M  RGP  3   9   1  10   2  11   3
V    9 *
V   10 *
V   11 *
M  END
>  <m_name>  (71)
D-Gamma glutamic acid

>  <symbol>  (71)
D_gGlu

>  <m_abbr>  (71)
D_gGlu

>  <m_type>  (71)
aa

>  <m_subtype>  (71)
non-natural

>  <m_Rgroups>  (71)
H,OH,OH,None

>  <m_RgroupIdx>  (71)
8,9,10,None

>  <m_attachmentPointIdx>  (71)
0,4,6,None

>  <natAnalog>  (71)
E

>  <pdbName>  (71)
DGE

$$$$

     RDKit          2D

 10  9  0  0  0  0  0  0  0  0999 V2000
    0.8250   -1.4289    0.0000 C   0  0  0  0  0  0  0  0  0  0  0  0
    1.2375   -2.1434    0.0000 C   0  0  0  0  0  0  0  0  0  0  0  0
    2.0625   -2.1434    0.0000 C   0  0  0  0  0  0  0  0  0  0  0  0
    2.4750   -2.8579    0.0000 C   0  0  0  0  0  0  0  0  0  0  0  0
    3.3000   -2.8579    0.0000 C   0  0  0  0  0  0  0  0  0  0  0  0
    3.7125   -3.5724    0.0000 N   0  0  0  0  0  0  0  0  0  0  0  0
    3.7125   -2.1434    0.0000 C   0  0  0  0  0  0  0  0  0  0  0  0
    4.5375   -2.1434    0.0000 O   0  0  0  0  0  0  0  0  0  0  0  0
    4.5375   -3.5724    0.0000 R#  0  0  0  0  0  0  0  0  0  0  0  0
    3.3000   -1.4289    0.0000 R#  0  0  0  0  0  0  0  0  0  0  0  0
  1  2  1  0
  2  3  1  0
  3  4  1  0
  5  4  1  6
  5  6  1  0
  6  9  1  0
  5  7  1  0
  7 10  1  0
  7  8  2  0
M  RGP  2   9   1  10   2
V    9 *
V   10 *
M  END
>  <m_name>  (72)
D-Norleucine

>  <symbol>  (72)
D_Nle

>  <m_abbr>  (72)
D_Nle

>  <m_type>  (72)
aa

>  <m_subtype>  (72)
non-natural

>  <m_Rgroups>  (72)
H,OH,None,None

>  <m_RgroupIdx>  (72)
8,9,None,None

>  <m_attachmentPointIdx>  (72)
5,6,None,None

>  <natAnalog>  (72)
L

>  <pdbName>  (72)
DNU

$$$$

     RDKit          2D

 14 14  0  0  0  0  0  0  0  0999 V2000
    2.1434   -0.4125    0.0000 N   0  0  0  0  0  0  0  0  0  0  0  0
    2.1434   -1.2375    0.0000 C   0  0  0  0  0  0  0  0  0  0  0  0
    1.4289   -1.6500    0.0000 C   0  0  0  0  0  0  0  0  0  0  0  0
    1.4289   -2.4750    0.0000 C   0  0  0  0  0  0  0  0  0  0  0  0
    0.7145   -2.8875    0.0000 C   0  0  0  0  0  0  0  0  0  0  0  0
    0.7145   -3.7125    0.0000 C   0  0  0  0  0  0  0  0  0  0  0  0
    0.0000   -4.1250    0.0000 C   0  0  0  0  0  0  0  0  0  0  0  0
   -0.7145   -3.7125    0.0000 C   0  0  0  0  0  0  0  0  0  0  0  0
   -0.7145   -2.8875    0.0000 C   0  0  0  0  0  0  0  0  0  0  0  0
    0.0000   -2.4750    0.0000 C   0  0  0  0  0  0  0  0  0  0  0  0
    2.8579   -1.6500    0.0000 C   0  0  0  0  0  0  0  0  0  0  0  0
    2.8579   -2.4750    0.0000 O   0  0  0  0  0  0  0  0  0  0  0  0
    2.8579    0.0000    0.0000 R#  0  0  0  0  0  0  0  0  0  0  0  0
    3.5724   -1.2375    0.0000 R#  0  0  0  0  0  0  0  0  0  0  0  0
 13  1  1  0
  2  1  1  0
  2  3  1  1
  3  4  1  0
  4  5  1  0
  5  6  2  0
  6  7  1  0
  7  8  2  0
  8  9  1  0
  9 10  2  0
  5 10  1  0
  2 11  1  0
 11 14  1  0
 11 12  2  0
M  RGP  2  13   1  14   2
V   13 *
V   14 *
M  END
>  <m_name>  (73)
D-Homophenylalanine

>  <symbol>  (73)
D_hPhe

>  <m_abbr>  (73)
D_hPhe

>  <m_type>  (73)
aa

>  <m_subtype>  (73)
non-natural

>  <m_Rgroups>  (73)
H,OH,None,None

>  <m_RgroupIdx>  (73)
12,13,None,None

>  <m_attachmentPointIdx>  (73)
0,10,None,None

>  <natAnalog>  (73)
F

>  <pdbName>  (73)
DHX

$$$$

     RDKit          2D

 10 10  0  0  0  0  0  0  0  0999 V2000
    0.5678    1.9393    0.0000 O   0  0  0  0  0  0  0  0  0  0  0  0
    0.5678    1.1143    0.0000 C   0  0  0  0  0  0  0  0  0  0  0  0
    1.2352    0.6294    0.0000 C   0  0  0  0  0  0  0  0  0  0  0  0
    0.9803   -0.1553    0.0000 C   0  0  0  0  0  0  0  0  0  0  0  0
    0.1553   -0.1553    0.0000 N   0  0  0  0  0  0  0  0  0  0  0  0
   -0.0997    0.6294    0.0000 C   0  0  0  0  0  0  0  0  0  0  0  0
    1.4652   -0.8227    0.0000 C   0  0  0  0  0  0  0  0  0  0  0  0
    1.1296   -1.5764    0.0000 O   0  0  0  0  0  0  0  0  0  0  0  0
   -0.3297   -0.8227    0.0000 R#  0  0  0  0  0  0  0  0  0  0  0  0
    2.2857   -0.7365    0.0000 R#  0  0  0  0  0  0  0  0  0  0  0  0
  2  1  1  1
  2  3  1  0
  4  3  1  0
  4  5  1  0
  5  9  1  0
  5  6  1  0
  2  6  1  0
  4  7  1  6
  7 10  1  0
  7  8  2  0
M  RGP  2   9   1  10   2
V    9 *
V   10 *
M  END
>  <m_name>  (74)
D-4-Hydroxyproline

>  <symbol>  (74)
D_Hyp

>  <m_abbr>  (74)
D_Hyp

>  <m_type>  (74)
aa

>  <m_subtype>  (74)
non-natural

>  <m_Rgroups>  (74)
H,OH,None,None

>  <m_RgroupIdx>  (74)
8,9,None,None

>  <m_attachmentPointIdx>  (74)
4,6,None,None

>  <natAnalog>  (74)
P

>  <pdbName>  (74)
DH0

$$$$

     RDKit          2D

  9  8  0  0  0  0  0  0  0  0999 V2000
    0.5230    0.5230    0.0000 C   0  0  0  0  0  0  0  0  0  0  0  0
    1.2375    0.1105    0.0000 C   0  0  0  0  0  0  0  0  0  0  0  0
    1.2375   -0.7145    0.0000 C   0  0  0  0  0  0  0  0  0  0  0  0
    1.9520   -1.1270    0.0000 C   0  0  0  0  0  0  0  0  0  0  0  0
    1.9520   -1.9520    0.0000 N   0  0  0  0  0  0  0  0  0  0  0  0
    2.6664   -0.7145    0.0000 C   0  0  0  0  0  0  0  0  0  0  0  0
    3.3809   -1.1270    0.0000 O   0  0  0  0  0  0  0  0  0  0  0  0
    2.6664   -2.3645    0.0000 R#  0  0  0  0  0  0  0  0  0  0  0  0
    2.6664    0.1105    0.0000 R#  0  0  0  0  0  0  0  0  0  0  0  0
  1  2  1  0
  2  3  1  0
  4  3  1  6
  4  5  1  0
  5  8  1  0
  4  6  1  0
  6  9  1  0
  6  7  2  0
M  RGP  2   8   1   9   2
V    8 *
V    9 *
M  END
>  <m_name>  (75)
D-Norvaline

>  <symbol>  (75)
D_Nva

>  <m_abbr>  (75)
D_Nva

>  <m_type>  (75)
aa

>  <m_subtype>  (75)
non-natural

>  <m_Rgroups>  (75)
H,OH,None,None

>  <m_RgroupIdx>  (75)
7,8,None,None

>  <m_attachmentPointIdx>  (75)
4,5,None,None

>  <natAnalog>  (75)
V

>  <pdbName>  (75)
DGK

$$$$

     RDKit          2D

 11 10  0  0  0  0  0  0  0  0999 V2000
    3.7125   -3.5724    0.0000 N   0  0  0  0  0  0  0  0  0  0  0  0
    3.3000   -2.8579    0.0000 C   0  0  0  0  0  0  0  0  0  0  0  0
    2.4750   -2.8579    0.0000 C   0  0  0  0  0  0  0  0  0  0  0  0
    2.0625   -2.1434    0.0000 C   0  0  0  0  0  0  0  0  0  0  0  0
    1.2375   -2.1434    0.0000 C   0  0  0  0  0  0  0  0  0  0  0  0
    0.8250   -1.4289    0.0000 N   0  0  0  0  0  0  0  0  0  0  0  0
    3.7125   -2.1434    0.0000 C   0  0  0  0  0  0  0  0  0  0  0  0
    4.5375   -2.1434    0.0000 O   0  0  0  0  0  0  0  0  0  0  0  0
    4.5375   -3.5724    0.0000 R#  0  0  0  0  0  0  0  0  0  0  0  0
    0.0000   -1.4289    0.0000 R#  0  0  0  0  0  0  0  0  0  0  0  0
    3.3000   -1.4289    0.0000 R#  0  0  0  0  0  0  0  0  0  0  0  0
  9  1  1  0
  2  1  1  0
  2  3  1  6
  3  4  1  0
  4  5  1  0
  5  6  1  0
  6 10  1  0
  2  7  1  0
  7 11  1  0
  7  8  2  0
M  RGP  3   9   1  10   3  11   2
V    9 *
V   10 *
V   11 *
M  END
>  <m_name>  (76)
D-Ornithine

>  <symbol>  (76)
D_Orn

>  <m_abbr>  (76)
D_Orn

>  <m_type>  (76)
aa

>  <m_subtype>  (76)
non-natural

>  <m_Rgroups>  (76)
H,OH,H,None

>  <m_RgroupIdx>  (76)
8,10,9,None

>  <m_attachmentPointIdx>  (76)
0,6,5,None

>  <natAnalog>  (76)
K

>  <pdbName>  (76)
DOU

$$$$

     RDKit          2D

 10 10  0  0  0  0  0  0  0  0999 V2000
    0.5678    1.1143    0.0000 N   0  0  0  0  0  0  0  0  0  0  0  0
    1.2352    0.6294    0.0000 C   0  0  0  0  0  0  0  0  0  0  0  0
    0.9803   -0.1553    0.0000 C   0  0  0  0  0  0  0  0  0  0  0  0
    0.1553   -0.1553    0.0000 C   0  0  0  0  0  0  0  0  0  0  0  0
   -0.0997    0.6294    0.0000 C   0  0  0  0  0  0  0  0  0  0  0  0
   -0.8843    0.8843    0.0000 O   0  0  0  0  0  0  0  0  0  0  0  0
    2.0198    0.8843    0.0000 C   0  0  0  0  0  0  0  0  0  0  0  0
    2.6329    0.3323    0.0000 O   0  0  0  0  0  0  0  0  0  0  0  0
    0.5678    1.9393    0.0000 R#  0  0  0  0  0  0  0  0  0  0  0  0
    2.1913    1.6913    0.0000 R#  0  0  0  0  0  0  0  0  0  0  0  0
  9  1  1  0
  2  1  1  0
  2  3  1  0
  3  4  1  0
  4  5  1  0
  1  5  1  0
  5  6  2  0
  2  7  1  6
  7 10  1  0
  7  8  2  0
M  RGP  2   9   1  10   2
V    9 *
V   10 *
M  END
>  <m_name>  (77)
Pyroglutamic acid

>  <symbol>  (77)
Pyr

>  <m_abbr>  (77)
Pyr

>  <m_type>  (77)
aa

>  <m_subtype>  (77)
non-natural

>  <m_Rgroups>  (77)
H,OH,None,None

>  <m_RgroupIdx>  (77)
8,9,None,None

>  <m_attachmentPointIdx>  (77)
0,6,None,None

>  <natAnalog>  (77)
E

>  <pdbName>  (77)
PYK

$$$$

     RDKit          2D

  9  9  0  0  0  0  0  0  0  0999 V2000
    0.5678    1.9393    0.0000 C   0  0  0  0  0  0  0  0  0  0  0  0
   -0.1467    2.3518    0.0000 O   0  0  0  0  0  0  0  0  0  0  0  0
    0.5678    1.1143    0.0000 C   0  0  0  0  0  0  0  0  0  0  0  0
    1.2352    0.6294    0.0000 C   0  0  0  0  0  0  0  0  0  0  0  0
    0.9803   -0.1553    0.0000 C   0  0  0  0  0  0  0  0  0  0  0  0
    0.1553   -0.1553    0.0000 C   0  0  0  0  0  0  0  0  0  0  0  0
   -0.3297   -0.8227    0.0000 O   0  0  0  0  0  0  0  0  0  0  0  0
   -0.0997    0.6294    0.0000 N   0  0  0  0  0  0  0  0  0  0  0  0
    1.2822    2.3518    0.0000 R#  0  0  0  0  0  0  0  0  0  0  0  0
  9  1  1  0
  1  2  2  0
  3  1  1  1
  3  4  1  0
  4  5  1  0
  5  6  1  0
  6  7  2  0
  6  8  1  0
  3  8  1  0
M  RGP  1   9   2
V    9 *
M  END
>  <m_name>  (78)
D-Pyroglutamic acid

>  <symbol>  (78)
D_Pyr

>  <m_abbr>  (78)
D_Pyr

>  <m_type>  (78)
aa

>  <m_subtype>  (78)
non-natural

>  <m_Rgroups>  (78)
None,OH,None,None

>  <m_RgroupIdx>  (78)
None,8,None,None

>  <m_attachmentPointIdx>  (78)
None,0,None,None

>  <natAnalog>  (78)
E

>  <pdbName>  (78)
DG5

$$$$

     RDKit          2D

 14 14  0  0  0  0  0  0  0  0999 V2000
    0.7145    2.0625    0.0000 Cl  0  0  0  0  0  0  0  0  0  0  0  0
    0.7145    1.2375    0.0000 C   0  0  0  0  0  0  0  0  0  0  0  0
    1.4289    0.8250    0.0000 C   0  0  0  0  0  0  0  0  0  0  0  0
    1.4289    0.0000    0.0000 C   0  0  0  0  0  0  0  0  0  0  0  0
    0.7145   -0.4125    0.0000 C   0  0  0  0  0  0  0  0  0  0  0  0
    0.0000    0.0000    0.0000 C   0  0  0  0  0  0  0  0  0  0  0  0
   -0.7145   -0.4125    0.0000 C   0  0  0  0  0  0  0  0  0  0  0  0
   -0.7145   -1.2375    0.0000 C   0  0  0  0  0  0  0  0  0  0  0  0
   -1.4289   -1.6500    0.0000 N   0  0  0  0  0  0  0  0  0  0  0  0
    0.0000   -1.6500    0.0000 C   0  0  0  0  0  0  0  0  0  0  0  0
    0.7145   -1.2375    0.0000 O   0  0  0  0  0  0  0  0  0  0  0  0
    0.0000    0.8250    0.0000 C   0  0  0  0  0  0  0  0  0  0  0  0
   -1.4289   -2.4750    0.0000 R#  0  0  0  0  0  0  0  0  0  0  0  0
    0.0000   -2.4750    0.0000 R#  0  0  0  0  0  0  0  0  0  0  0  0
  1  2  1  0
  2  3  2  0
  3  4  1  0
  4  5  2  0
  5  6  1  0
  6  7  1  0
  8  7  1  1
  8  9  1  0
  9 13  1  0
  8 10  1  0
 10 14  1  0
 10 11  2  0
  6 12  2  0
  2 12  1  0
M  RGP  2  13   1  14   2
V   13 *
V   14 *
M  END
>  <m_name>  (79)
3-Chloro-L-phenylalanine

>  <symbol>  (79)
Phe_3Cl

>  <m_abbr>  (79)
Phe_3Cl

>  <m_type>  (79)
aa

>  <m_subtype>  (79)
non-natural

>  <m_Rgroups>  (79)
H,OH,None,None

>  <m_RgroupIdx>  (79)
12,13,None,None

>  <m_attachmentPointIdx>  (79)
8,9,None,None

>  <natAnalog>  (79)
F

>  <pdbName>  (79)
PAA

$$$$

     RDKit          2D

 14 14  0  0  0  0  0  0  0  0999 V2000
    0.7145    2.0625    0.0000 Cl  0  0  0  0  0  0  0  0  0  0  0  0
    0.7145    1.2375    0.0000 C   0  0  0  0  0  0  0  0  0  0  0  0
    1.4289    0.8250    0.0000 C   0  0  0  0  0  0  0  0  0  0  0  0
    1.4289    0.0000    0.0000 C   0  0  0  0  0  0  0  0  0  0  0  0
    0.7145   -0.4125    0.0000 C   0  0  0  0  0  0  0  0  0  0  0  0
    0.7145   -1.2375    0.0000 C   0  0  0  0  0  0  0  0  0  0  0  0
    1.4289   -1.6500    0.0000 C   0  0  0  0  0  0  0  0  0  0  0  0
    1.4289   -2.4750    0.0000 N   0  0  0  0  0  0  0  0  0  0  0  0
    2.1434   -1.2375    0.0000 C   0  0  0  0  0  0  0  0  0  0  0  0
    2.1434   -0.4125    0.0000 O   0  0  0  0  0  0  0  0  0  0  0  0
    0.0000    0.0000    0.0000 C   0  0  0  0  0  0  0  0  0  0  0  0
    0.0000    0.8250    0.0000 C   0  0  0  0  0  0  0  0  0  0  0  0
    2.1434   -2.8875    0.0000 R#  0  0  0  0  0  0  0  0  0  0  0  0
    2.8579   -1.6500    0.0000 R#  0  0  0  0  0  0  0  0  0  0  0  0
  1  2  1  0
  2  3  2  0
  3  4  1  0
  4  5  2  0
  5  6  1  0
  7  6  1  1
  7  8  1  0
  8 13  1  0
  7  9  1  0
  9 14  1  0
  9 10  2  0
  5 11  1  0
 11 12  2  0
  2 12  1  0
M  RGP  2  13   1  14   2
V   13 *
V   14 *
M  END
>  <m_name>  (80)
4-Chloro-L-phenylalanine

>  <symbol>  (80)
Phe_4Cl

>  <m_abbr>  (80)
Phe_4Cl

>  <m_type>  (80)
aa

>  <m_subtype>  (80)
non-natural

>  <m_Rgroups>  (80)
H,OH,None,None

>  <m_RgroupIdx>  (80)
12,13,None,None

>  <m_attachmentPointIdx>  (80)
7,8,None,None

>  <natAnalog>  (80)
F

>  <pdbName>  (80)
PBJ

$$$$

     RDKit          2D

 14 14  0  0  0  0  0  0  0  0999 V2000
    0.7145    2.0625    0.0000 N   0  0  0  0  0  0  0  0  0  0  0  0
    0.7145    1.2375    0.0000 C   0  0  0  0  0  0  0  0  0  0  0  0
    1.4289    0.8250    0.0000 C   0  0  0  0  0  0  0  0  0  0  0  0
    1.4289    0.0000    0.0000 C   0  0  0  0  0  0  0  0  0  0  0  0
    0.7145   -0.4125    0.0000 C   0  0  0  0  0  0  0  0  0  0  0  0
    0.7145   -1.2375    0.0000 C   0  0  0  0  0  0  0  0  0  0  0  0
    1.4289   -1.6500    0.0000 C   0  0  0  0  0  0  0  0  0  0  0  0
    1.4289   -2.4750    0.0000 N   0  0  0  0  0  0  0  0  0  0  0  0
    2.1434   -1.2375    0.0000 C   0  0  0  0  0  0  0  0  0  0  0  0
    2.1434   -0.4125    0.0000 O   0  0  0  0  0  0  0  0  0  0  0  0
    0.0000    0.0000    0.0000 C   0  0  0  0  0  0  0  0  0  0  0  0
    0.0000    0.8250    0.0000 C   0  0  0  0  0  0  0  0  0  0  0  0
    2.1434   -2.8875    0.0000 R#  0  0  0  0  0  0  0  0  0  0  0  0
    2.8579   -1.6500    0.0000 R#  0  0  0  0  0  0  0  0  0  0  0  0
  1  2  1  0
  2  3  2  0
  3  4  1  0
  4  5  2  0
  5  6  1  0
  7  6  1  1
  7  8  1  0
  8 13  1  0
  7  9  1  0
  9 14  1  0
  9 10  2  0
  5 11  1  0
 11 12  2  0
  2 12  1  0
M  RGP  2  13   1  14   2
V   13 *
V   14 *
M  END
>  <m_name>  (81)
p-Aminophenylalanine

>  <symbol>  (81)
Phe_4NH2

>  <m_abbr>  (81)
Phe_4NH2

>  <m_type>  (81)
aa

>  <m_subtype>  (81)
non-natural

>  <m_Rgroups>  (81)
H,OH,None,None

>  <m_RgroupIdx>  (81)
12,13,None,None

>  <m_attachmentPointIdx>  (81)
7,8,None,None

>  <natAnalog>  (81)
F

>  <pdbName>  (81)
PD0

$$$$

     RDKit          2D

 12 12  0  0  0  0  0  0  0  0999 V2000
    0.0000    2.4750    0.0000 N   0  0  0  0  0  0  0  0  0  0  0  0
    0.7145    2.0625    0.0000 C   0  0  0  0  0  0  0  0  0  0  0  0
    1.4289    2.4750    0.0000 C   0  0  0  0  0  0  0  0  0  0  0  0
    1.4289    3.3000    0.0000 O   0  0  0  0  0  0  0  0  0  0  0  0
    0.7145    1.2375    0.0000 C   0  0  0  0  0  0  0  0  0  0  0  0
    1.4289    0.8250    0.0000 C   0  0  0  0  0  0  0  0  0  0  0  0
    1.4289    0.0000    0.0000 C   0  0  0  0  0  0  0  0  0  0  0  0
    0.7145   -0.4125    0.0000 C   0  0  0  0  0  0  0  0  0  0  0  0
    0.0000    0.0000    0.0000 C   0  0  0  0  0  0  0  0  0  0  0  0
    0.0000    0.8250    0.0000 C   0  0  0  0  0  0  0  0  0  0  0  0
    0.0000    3.3000    0.0000 R#  0  0  0  0  0  0  0  0  0  0  0  0
    2.1434    2.0625    0.0000 R#  0  0  0  0  0  0  0  0  0  0  0  0
 11  1  1  0
  2  1  1  6
  2  3  1  0
  3 12  1  0
  3  4  2  0
  2  5  1  0
  5  6  2  0
  6  7  1  0
  7  8  2  0
  8  9  1  0
  9 10  2  0
  5 10  1  0
M  RGP  2  11   1  12   2
V   11 *
V   12 *
M  END
>  <m_name>  (82)
2-Phenylglycine

>  <symbol>  (82)
Phg

>  <m_abbr>  (82)
Phg

>  <m_type>  (82)
aa

>  <m_subtype>  (82)
non-natural

>  <m_Rgroups>  (82)
H,OH,None,None

>  <m_RgroupIdx>  (82)
10,11,None,None

>  <m_attachmentPointIdx>  (82)
0,2,None,None

>  <natAnalog>  (82)
G

>  <pdbName>  (82)
PEN

$$$$

     RDKit          2D

 12 11  0  0  0  0  0  0  0  0999 V2000
   -0.8250   -2.8579    0.0000 C   0  0  0  0  0  0  0  0  0  0  0  0
   -0.4125   -2.1434    0.0000 C   0  0  0  0  0  0  0  0  0  0  0  0
    0.3020   -2.5559    0.0000 C   0  0  0  0  0  0  0  0  0  0  0  0
   -1.1270   -1.7309    0.0000 C   0  0  0  0  0  0  0  0  0  0  0  0
    0.0000   -1.4289    0.0000 O   0  0  0  0  0  0  0  0  0  0  0  0
    0.8250   -1.4289    0.0000 C   0  0  0  0  0  0  0  0  0  0  0  0
    1.2375   -0.7145    0.0000 C   0  0  0  0  0  0  0  0  0  0  0  0
    2.0625   -0.7145    0.0000 N   0  0  0  0  0  0  0  0  0  0  0  0
    0.8250    0.0000    0.0000 C   0  0  0  0  0  0  0  0  0  0  0  0
    0.0000    0.0000    0.0000 O   0  0  0  0  0  0  0  0  0  0  0  0
    2.4750    0.0000    0.0000 R#  0  0  0  0  0  0  0  0  0  0  0  0
    1.2375    0.7145    0.0000 R#  0  0  0  0  0  0  0  0  0  0  0  0
  1  2  1  0
  2  3  1  0
  2  4  1  0
  2  5  1  0
  5  6  1  0
  7  6  1  1
  7  8  1  0
  8 11  1  0
  7  9  1  0
  9 12  1  0
  9 10  2  0
M  RGP  2  11   1  12   2
V   11 *
V   12 *
M  END
>  <m_name>  (83)
O-tert-Butyl-L-serine

>  <symbol>  (83)
Ser_tBu

>  <m_abbr>  (83)
Ser_tBu

>  <m_type>  (83)
aa

>  <m_subtype>  (83)
non-natural

>  <m_Rgroups>  (83)
H,OH,None,None

>  <m_RgroupIdx>  (83)
10,11,None,None

>  <m_attachmentPointIdx>  (83)
7,8,None,None

>  <natAnalog>  (83)
S

>  <pdbName>  (83)
SED

$$$$

     RDKit          2D

 21 22  0  0  0  0  0  0  0  0999 V2000
    0.7145   -0.4125    0.0000 N   0  0  0  0  0  0  0  0  0  0  0  0
    0.7145   -1.2375    0.0000 C   0  0  0  0  0  0  0  0  0  0  0  0
    1.4289   -1.6500    0.0000 C   0  0  0  0  0  0  0  0  0  0  0  0
    1.4289   -2.4750    0.0000 C   0  0  0  0  0  0  0  0  0  0  0  0
    2.1434   -2.8875    0.0000 C   0  0  0  0  0  0  0  0  0  0  0  0
    2.1434   -3.7125    0.0000 C   0  0  0  0  0  0  0  0  0  0  0  0
    1.4289   -4.1250    0.0000 C   0  0  0  0  0  0  0  0  0  0  0  0
    1.4289   -4.9500    0.0000 O   0  0  0  0  0  0  0  0  0  0  0  0
    2.1434   -5.3625    0.0000 C   0  0  0  0  0  0  0  0  0  0  0  0
    2.1434   -6.1875    0.0000 C   0  0  0  0  0  0  0  0  0  0  0  0
    2.8579   -6.6000    0.0000 C   0  0  0  0  0  0  0  0  0  0  0  0
    2.8579   -7.4250    0.0000 C   0  0  0  0  0  0  0  0  0  0  0  0
    2.1434   -7.8375    0.0000 C   0  0  0  0  0  0  0  0  0  0  0  0
    1.4289   -7.4250    0.0000 C   0  0  0  0  0  0  0  0  0  0  0  0
    1.4289   -6.6000    0.0000 C   0  0  0  0  0  0  0  0  0  0  0  0
    0.7145   -3.7125    0.0000 C   0  0  0  0  0  0  0  0  0  0  0  0
    0.7145   -2.8875    0.0000 C   0  0  0  0  0  0  0  0  0  0  0  0
    0.0000   -1.6500    0.0000 C   0  0  0  0  0  0  0  0  0  0  0  0
   -0.7145   -1.2375    0.0000 O   0  0  0  0  0  0  0  0  0  0  0  0
    0.0000    0.0000    0.0000 R#  0  0  0  0  0  0  0  0  0  0  0  0
    0.0000   -2.4750    0.0000 R#  0  0  0  0  0  0  0  0  0  0  0  0
 20  1  1  0
  2  1  1  0
  2  3  1  1
  3  4  1  0
  4  5  2  0
  5  6  1  0
  6  7  2  0
  7  8  1  0
  8  9  1  0
  9 10  1  0
 10 11  2  0
 11 12  1  0
 12 13  2  0
 13 14  1  0
 14 15  2  0
 10 15  1  0
  7 16  1  0
 16 17  2  0
  4 17  1  0
  2 18  1  0
 18 21  1  0
 18 19  2  0
M  RGP  2  20   1  21   2
V   20 *
V   21 *
M  END
>  <m_name>  (84)
O-Benzyl-L-tyrosine

>  <symbol>  (84)
Tyr_Bn

>  <m_abbr>  (84)
Tyr_Bn

>  <m_type>  (84)
aa

>  <m_subtype>  (84)
non-natural

>  <m_Rgroups>  (84)
H,OH,None,None

>  <m_RgroupIdx>  (84)
19,20,None,None

>  <m_attachmentPointIdx>  (84)
0,17,None,None

>  <natAnalog>  (84)
Y

>  <pdbName>  (84)
TYH

$$$$

     RDKit          2D

 12 12  0  0  0  0  0  0  0  0999 V2000
   -0.1467    3.1768    0.0000 N   0  0  0  0  0  0  0  0  0  0  0  0
   -0.1467    2.3518    0.0000 C   0  0  0  0  0  0  0  0  0  0  0  0
    0.5678    1.9393    0.0000 C   0  0  0  0  0  0  0  0  0  0  0  0
    0.5678    1.1143    0.0000 C   0  0  0  0  0  0  0  0  0  0  0  0
    1.2352    0.6294    0.0000 C   0  0  0  0  0  0  0  0  0  0  0  0
    0.9803   -0.1553    0.0000 S   0  0  0  0  0  0  0  0  0  0  0  0
    0.1553   -0.1553    0.0000 C   0  0  0  0  0  0  0  0  0  0  0  0
   -0.0997    0.6294    0.0000 N   0  0  0  0  0  0  0  0  0  0  0  0
   -0.8612    1.9393    0.0000 C   0  0  0  0  0  0  0  0  0  0  0  0
   -1.5757    2.3518    0.0000 O   0  0  0  0  0  0  0  0  0  0  0  0
   -0.8612    3.5893    0.0000 R#  0  0  0  0  0  0  0  0  0  0  0  0
   -0.8612    1.1143    0.0000 R#  0  0  0  0  0  0  0  0  0  0  0  0
 11  1  1  0
  2  1  1  0
  2  3  1  1
  3  4  1  0
  4  5  2  0
  5  6  1  0
  6  7  1  0
  7  8  2  0
  4  8  1  0
  2  9  1  0
  9 12  1  0
  9 10  2  0
M  RGP  2  11   1  12   2
V   11 *
V   12 *
M  END
>  <m_name>  (85)
3-Thiazolylalanine

>  <symbol>  (85)
Tza

>  <m_abbr>  (85)
Tza

>  <m_type>  (85)
aa

>  <m_subtype>  (85)
non-natural

>  <m_Rgroups>  (85)
H,OH,None,None

>  <m_RgroupIdx>  (85)
10,11,None,None

>  <m_attachmentPointIdx>  (85)
0,8,None,None

>  <natAnalog>  (85)
A

>  <pdbName>  (85)
TZI

$$$$

     RDKit          2D

 17 18  0  0  0  0  0  0  0  0999 V2000
    0.7145   -3.7125    0.0000 N   0  0  0  0  0  0  0  0  0  0  0  0
    0.7145   -2.8875    0.0000 C   0  0  0  0  0  0  0  0  0  0  0  0
    1.4289   -2.4750    0.0000 C   0  0  0  0  0  0  0  0  0  0  0  0
    1.4289   -1.6500    0.0000 C   0  0  0  0  0  0  0  0  0  0  0  0
    0.7145   -1.2375    0.0000 C   0  0  0  0  0  0  0  0  0  0  0  0
    0.7145   -0.4125    0.0000 C   0  0  0  0  0  0  0  0  0  0  0  0
    1.4289    0.0000    0.0000 C   0  0  0  0  0  0  0  0  0  0  0  0
    2.1434   -0.4125    0.0000 C   0  0  0  0  0  0  0  0  0  0  0  0
    2.8579    0.0000    0.0000 C   0  0  0  0  0  0  0  0  0  0  0  0
    3.5724   -0.4125    0.0000 C   0  0  0  0  0  0  0  0  0  0  0  0
    3.5724   -1.2375    0.0000 C   0  0  0  0  0  0  0  0  0  0  0  0
    2.8579   -1.6500    0.0000 C   0  0  0  0  0  0  0  0  0  0  0  0
    2.1434   -1.2375    0.0000 C   0  0  0  0  0  0  0  0  0  0  0  0
    0.0000   -2.4750    0.0000 C   0  0  0  0  0  0  0  0  0  0  0  0
   -0.7145   -2.8875    0.0000 O   0  0  0  0  0  0  0  0  0  0  0  0
    0.0000   -4.1250    0.0000 R#  0  0  0  0  0  0  0  0  0  0  0  0
    0.0000   -1.6500    0.0000 R#  0  0  0  0  0  0  0  0  0  0  0  0
 16  1  1  0
  2  1  1  0
  2  3  1  6
  3  4  1  0
  4  5  2  0
  5  6  1  0
  6  7  2  0
  7  8  1  0
  8  9  2  0
  9 10  1  0
 10 11  2  0
 11 12  1  0
 12 13  2  0
  4 13  1  0
  8 13  1  0
  2 14  1  0
 14 17  1  0
 14 15  2  0
M  RGP  2  16   1  17   2
V   16 *
V   17 *
M  END
>  <m_name>  (86)
3-(1-naphthyl)-alanine

>  <symbol>  (86)
1Nal

>  <m_abbr>  (86)
1Nal

>  <m_type>  (86)
aa

>  <m_subtype>  (86)
non-natural

>  <m_Rgroups>  (86)
H,OH,None,None

>  <m_RgroupIdx>  (86)
15,16,None,None

>  <m_attachmentPointIdx>  (86)
0,13,None,None

>  <natAnalog>  (86)
A

>  <pdbName>  (86)
1NC

$$$$

     RDKit          2D

 13 13  0  0  0  0  0  0  0  0999 V2000
    0.0000    3.3000    0.0000 N   0  0  0  0  0  0  0  0  0  0  0  0
    0.0000    2.4750    0.0000 C   0  0  0  0  0  0  0  0  0  0  0  0
    0.7145    2.0625    0.0000 C   0  0  0  0  0  0  0  0  0  0  0  0
    0.7145    1.2375    0.0000 C   0  0  0  0  0  0  0  0  0  0  0  0
    1.4289    0.8250    0.0000 C   0  0  0  0  0  0  0  0  0  0  0  0
    1.4289    0.0000    0.0000 C   0  0  0  0  0  0  0  0  0  0  0  0
    0.7145   -0.4125    0.0000 C   0  0  0  0  0  0  0  0  0  0  0  0
    0.0000    0.0000    0.0000 C   0  0  0  0  0  0  0  0  0  0  0  0
    0.0000    0.8250    0.0000 C   0  0  0  0  0  0  0  0  0  0  0  0
   -0.7145    2.0625    0.0000 C   0  0  0  0  0  0  0  0  0  0  0  0
   -1.4289    2.4750    0.0000 O   0  0  0  0  0  0  0  0  0  0  0  0
   -0.7145    3.7125    0.0000 R#  0  0  0  0  0  0  0  0  0  0  0  0
   -0.7145    1.2375    0.0000 R#  0  0  0  0  0  0  0  0  0  0  0  0
 12  1  1  0
  2  1  1  0
  2  3  1  1
  3  4  1  0
  4  5  1  0
  5  6  1  0
  6  7  1  0
  7  8  1  0
  8  9  1  0
  4  9  1  0
  2 10  1  0
 10 13  1  0
 10 11  2  0
M  RGP  2  12   1  13   2
V   12 *
V   13 *
M  END
>  <m_name>  (87)
3-Cyclohexylalanine

>  <symbol>  (87)
Cha

>  <m_abbr>  (87)
Cha

>  <m_type>  (87)
aa

>  <m_subtype>  (87)
non-natural

>  <m_Rgroups>  (87)
H,OH,None,None

>  <m_RgroupIdx>  (87)
11,12,None,None

>  <m_attachmentPointIdx>  (87)
0,9,None,None

>  <natAnalog>  (87)
A

>  <pdbName>  (87)
CHE

$$$$

     RDKit          2D

 18 17  0  0  0  0  0  0  0  0999 V2000
   -1.1929   -1.8573    0.0000 C   0  0  0  0  0  0  0  0  0  0  0  0
   -0.6528   -2.4810    0.0000 C   0  0  0  0  0  0  0  0  0  0  0  0
   -1.2765   -3.0211    0.0000 C   0  0  0  0  0  0  0  0  0  0  0  0
   -0.0292   -1.9409    0.0000 C   0  0  0  0  0  0  0  0  0  0  0  0
   -0.1127   -3.1046    0.0000 O   0  0  0  0  0  0  0  0  0  0  0  0
    0.6974   -2.9487    0.0000 C   0  0  0  0  0  0  0  0  0  0  0  0
    0.9675   -2.1692    0.0000 O   0  0  0  0  0  0  0  0  0  0  0  0
    1.2375   -3.5724    0.0000 N   0  0  0  0  0  0  0  0  0  0  0  0
    2.0476   -3.4164    0.0000 C   0  0  0  0  0  0  0  0  0  0  0  0
    2.5877   -4.0401    0.0000 C   0  0  0  0  0  0  0  0  0  0  0  0
    3.3979   -3.8842    0.0000 C   0  0  0  0  0  0  0  0  0  0  0  0
    3.9379   -4.5078    0.0000 C   0  0  0  0  0  0  0  0  0  0  0  0
    4.7481   -4.3519    0.0000 C   0  0  0  0  0  0  0  0  0  0  0  0
    5.2882   -4.9755    0.0000 N   0  0  0  0  0  0  0  0  0  0  0  0
    5.0181   -3.5724    0.0000 C   0  0  0  0  0  0  0  0  0  0  0  0
    5.8283   -3.4164    0.0000 O   0  0  0  0  0  0  0  0  0  0  0  0
    6.0983   -4.8196    0.0000 R#  0  0  0  0  0  0  0  0  0  0  0  0
    4.4780   -2.9487    0.0000 R#  0  0  0  0  0  0  0  0  0  0  0  0
  1  2  1  0
  2  3  1  0
  2  4  1  0
  2  5  1  0
  5  6  1  0
  6  7  2  0
  6  8  1  0
  8  9  1  0
  9 10  1  0
 10 11  1  0
 11 12  1  0
 13 12  1  1
 13 14  1  0
 14 17  1  0
 13 15  1  0
 15 18  1  0
 15 16  2  0
M  RGP  2  17   1  18   2
V   17 *
V   18 *
M  END
>  <m_name>  (88)
N-epsilon-tert-Boc-L-lysine

>  <symbol>  (88)
Lys_Boc

>  <m_abbr>  (88)
Lys_Boc

>  <m_type>  (88)
aa

>  <m_subtype>  (88)
non-natural

>  <m_Rgroups>  (88)
H,OH,None,None

>  <m_RgroupIdx>  (88)
16,17,None,None

>  <m_attachmentPointIdx>  (88)
13,14,None,None

>  <natAnalog>  (88)
K

>  <pdbName>  (88)
LYI

$$$$

     RDKit          2D

  9  8  0  0  0  0  0  0  0  0999 V2000
    0.0000   -1.4289    0.0000 C   0  0  0  0  0  0  0  0  0  0  0  0
    0.8250   -1.4289    0.0000 C   0  0  0  0  0  0  0  0  0  0  0  0
    1.2375   -2.1434    0.0000 O   0  0  0  0  0  0  0  0  0  0  0  0
    1.2375   -0.7145    0.0000 C   0  0  0  0  0  0  0  0  0  0  0  0
    2.0625   -0.7145    0.0000 N   0  0  0  0  0  0  0  0  0  0  0  0
    0.8250    0.0000    0.0000 C   0  0  0  0  0  0  0  0  0  0  0  0
    0.0000    0.0000    0.0000 O   0  0  0  0  0  0  0  0  0  0  0  0
    2.4750    0.0000    0.0000 R#  0  0  0  0  0  0  0  0  0  0  0  0
    1.2375    0.7145    0.0000 R#  0  0  0  0  0  0  0  0  0  0  0  0
  2  1  1  1
  2  3  1  0
  2  4  1  0
  4  5  1  1
  5  8  1  0
  4  6  1  0
  6  9  1  0
  6  7  2  0
M  RGP  2   8   1   9   2
V    8 *
V    9 *
M  END
>  <m_name>  (89)
L-allo-Threonine

>  <symbol>  (89)
aThr

>  <m_abbr>  (89)
aThr

>  <m_type>  (89)
aa

>  <m_subtype>  (89)
non-natural

>  <m_Rgroups>  (89)
H,OH,None,None

>  <m_RgroupIdx>  (89)
7,8,None,None

>  <m_attachmentPointIdx>  (89)
4,5,None,None

>  <natAnalog>  (89)
T

>  <pdbName>  (89)
ATB

$$$$

     RDKit          2D

 17 18  0  0  0  0  0  0  0  0999 V2000
   -0.7145   -2.8875    0.0000 N   0  0  0  0  0  0  0  0  0  0  0  0
    0.0000   -2.4750    0.0000 C   0  0  0  0  0  0  0  0  0  0  0  0
    0.0000   -1.6500    0.0000 C   0  0  0  0  0  0  0  0  0  0  0  0
    0.7145   -1.2375    0.0000 C   0  0  0  0  0  0  0  0  0  0  0  0
    0.7145   -0.4125    0.0000 C   0  0  0  0  0  0  0  0  0  0  0  0
    1.4289    0.0000    0.0000 C   0  0  0  0  0  0  0  0  0  0  0  0
    2.1434   -0.4125    0.0000 C   0  0  0  0  0  0  0  0  0  0  0  0
    2.8579    0.0000    0.0000 C   0  0  0  0  0  0  0  0  0  0  0  0
    3.5724   -0.4125    0.0000 C   0  0  0  0  0  0  0  0  0  0  0  0
    3.5724   -1.2375    0.0000 C   0  0  0  0  0  0  0  0  0  0  0  0
    2.8579   -1.6500    0.0000 C   0  0  0  0  0  0  0  0  0  0  0  0
    2.1434   -1.2375    0.0000 C   0  0  0  0  0  0  0  0  0  0  0  0
    1.4289   -1.6500    0.0000 C   0  0  0  0  0  0  0  0  0  0  0  0
    0.7145   -2.8875    0.0000 C   0  0  0  0  0  0  0  0  0  0  0  0
    0.7145   -3.7125    0.0000 O   0  0  0  0  0  0  0  0  0  0  0  0
   -0.7145   -3.7125    0.0000 R#  0  0  0  0  0  0  0  0  0  0  0  0
    1.4289   -2.4750    0.0000 R#  0  0  0  0  0  0  0  0  0  0  0  0
 16  1  1  0
  2  1  1  0
  2  3  1  6
  3  4  1  0
  4  5  2  0
  5  6  1  0
  6  7  2  0
  7  8  1  0
  8  9  2  0
  9 10  1  0
 10 11  2  0
 11 12  1  0
  7 12  1  0
 12 13  2  0
  4 13  1  0
  2 14  1  0
 14 17  1  0
 14 15  2  0
M  RGP  2  16   1  17   2
V   16 *
V   17 *
M  END
>  <m_name>  (90)
D-3-naphthylalanine

>  <symbol>  (90)
D_2Nal

>  <m_abbr>  (90)
D_2Nal

>  <m_type>  (90)
aa

>  <m_subtype>  (90)
non-natural

>  <m_Rgroups>  (90)
H,OH,None,None

>  <m_RgroupIdx>  (90)
15,16,None,None

>  <m_attachmentPointIdx>  (90)
0,13,None,None

>  <natAnalog>  (90)
A

>  <pdbName>  (90)
D2I

$$$$

     RDKit          2D

 12 12  0  0  0  0  0  0  0  0999 V2000
   -0.1467    3.1768    0.0000 N   0  0  0  0  0  0  0  0  0  0  0  0
   -0.1467    2.3518    0.0000 C   0  0  0  0  0  0  0  0  0  0  0  0
    0.5678    1.9393    0.0000 C   0  0  0  0  0  0  0  0  0  0  0  0
    0.5678    1.1143    0.0000 C   0  0  0  0  0  0  0  0  0  0  0  0
    1.2352    0.6294    0.0000 C   0  0  0  0  0  0  0  0  0  0  0  0
    0.9803   -0.1553    0.0000 C   0  0  0  0  0  0  0  0  0  0  0  0
    0.1553   -0.1553    0.0000 C   0  0  0  0  0  0  0  0  0  0  0  0
   -0.0997    0.6294    0.0000 S   0  0  0  0  0  0  0  0  0  0  0  0
   -0.8612    1.9393    0.0000 C   0  0  0  0  0  0  0  0  0  0  0  0
   -1.5757    2.3518    0.0000 O   0  0  0  0  0  0  0  0  0  0  0  0
   -0.8612    3.5893    0.0000 R#  0  0  0  0  0  0  0  0  0  0  0  0
   -0.8612    1.1143    0.0000 R#  0  0  0  0  0  0  0  0  0  0  0  0
 11  1  1  0
  2  1  1  0
  2  3  1  6
  3  4  1  0
  4  5  2  0
  5  6  1  0
  6  7  2  0
  7  8  1  0
  4  8  1  0
  2  9  1  0
  9 12  1  0
  9 10  2  0
M  RGP  2  11   1  12   2
V   11 *
V   12 *
M  END
>  <m_name>  (91)
D-3-thienylalanine

>  <symbol>  (91)
D_2Thi

>  <m_abbr>  (91)
D_2Thi

>  <m_type>  (91)
aa

>  <m_subtype>  (91)
non-natural

>  <m_Rgroups>  (91)
H,OH,None,None

>  <m_RgroupIdx>  (91)
10,11,None,None

>  <m_attachmentPointIdx>  (91)
0,8,None,None

>  <natAnalog>  (91)
A

>  <pdbName>  (91)
DJA

$$$$

     RDKit          2D

 10 10  0  0  0  0  0  0  0  0999 V2000
    0.5678    1.9393    0.0000 O   0  0  0  0  0  0  0  0  0  0  0  0
    0.5678    1.1143    0.0000 C   0  0  0  0  0  0  0  0  0  0  0  0
    1.2352    0.6294    0.0000 C   0  0  0  0  0  0  0  0  0  0  0  0
    0.9803   -0.1553    0.0000 C   0  0  0  0  0  0  0  0  0  0  0  0
    0.1553   -0.1553    0.0000 N   0  0  0  0  0  0  0  0  0  0  0  0
   -0.0997    0.6294    0.0000 C   0  0  0  0  0  0  0  0  0  0  0  0
    1.4652   -0.8227    0.0000 C   0  0  0  0  0  0  0  0  0  0  0  0
    1.1296   -1.5764    0.0000 O   0  0  0  0  0  0  0  0  0  0  0  0
   -0.3297   -0.8227    0.0000 R#  0  0  0  0  0  0  0  0  0  0  0  0
    2.2857   -0.7365    0.0000 R#  0  0  0  0  0  0  0  0  0  0  0  0
  2  1  1  6
  2  3  1  0
  4  3  1  0
  4  5  1  0
  5  9  1  0
  5  6  1  0
  2  6  1  0
  4  7  1  6
  7 10  1  0
  7  8  2  0
M  RGP  2   9   1  10   2
V    9 *
V   10 *
M  END
>  <m_name>  (92)
D-allo-4-hydroxyproline

>  <symbol>  (92)
D_aHyp

>  <m_abbr>  (92)
D_aHyp

>  <m_type>  (92)
aa

>  <m_subtype>  (92)
non-natural

>  <m_Rgroups>  (92)
H,OH,None,None

>  <m_RgroupIdx>  (92)
8,9,None,None

>  <m_attachmentPointIdx>  (92)
4,6,None,None

>  <natAnalog>  (92)
P

>  <pdbName>  (92)
DJG

$$$$

     RDKit          2D

 10  9  0  0  0  0  0  0  0  0999 V2000
    0.5230    0.5230    0.0000 C   0  0  0  0  0  0  0  0  0  0  0  0
    1.2375    0.1105    0.0000 C   0  0  0  0  0  0  0  0  0  0  0  0
    1.2375   -0.7145    0.0000 C   0  0  0  0  0  0  0  0  0  0  0  0
    0.5230   -1.1270    0.0000 C   0  0  0  0  0  0  0  0  0  0  0  0
    1.9520   -1.1270    0.0000 C   0  0  0  0  0  0  0  0  0  0  0  0
    1.9520   -1.9520    0.0000 N   0  0  0  0  0  0  0  0  0  0  0  0
    2.6664   -0.7145    0.0000 C   0  0  0  0  0  0  0  0  0  0  0  0
    3.3809   -1.1270    0.0000 O   0  0  0  0  0  0  0  0  0  0  0  0
    2.6664   -2.3645    0.0000 R#  0  0  0  0  0  0  0  0  0  0  0  0
    2.6664    0.1105    0.0000 R#  0  0  0  0  0  0  0  0  0  0  0  0
  1  2  1  0
  3  2  1  0
  3  4  1  1
  3  5  1  0
  5  6  1  6
  6  9  1  0
  5  7  1  0
  7 10  1  0
  7  8  2  0
M  RGP  2   9   1  10   2
V    9 *
V   10 *
M  END
>  <m_name>  (93)
D-allo-Isoleucine

>  <symbol>  (93)
D_aIle

>  <m_abbr>  (93)
D_aIle

>  <m_type>  (93)
aa

>  <m_subtype>  (93)
non-natural

>  <m_Rgroups>  (93)
H,OH,None,None

>  <m_RgroupIdx>  (93)
8,9,None,None

>  <m_attachmentPointIdx>  (93)
5,6,None,None

>  <natAnalog>  (93)
I

>  <pdbName>  (93)
DJI

$$$$

     RDKit          2D

 12 12  0  0  0  0  0  0  0  0999 V2000
    0.0000    2.4750    0.0000 N   0  0  0  0  0  0  0  0  0  0  0  0
    0.7145    2.0625    0.0000 C   0  0  0  0  0  0  0  0  0  0  0  0
    1.4289    2.4750    0.0000 C   0  0  0  0  0  0  0  0  0  0  0  0
    1.4289    3.3000    0.0000 O   0  0  0  0  0  0  0  0  0  0  0  0
    0.7145    1.2375    0.0000 C   0  0  0  0  0  0  0  0  0  0  0  0
    1.4289    0.8250    0.0000 C   0  0  0  0  0  0  0  0  0  0  0  0
    1.4289    0.0000    0.0000 C   0  0  0  0  0  0  0  0  0  0  0  0
    0.7145   -0.4125    0.0000 C   0  0  0  0  0  0  0  0  0  0  0  0
    0.0000    0.0000    0.0000 C   0  0  0  0  0  0  0  0  0  0  0  0
    0.0000    0.8250    0.0000 C   0  0  0  0  0  0  0  0  0  0  0  0
    0.0000    3.3000    0.0000 R#  0  0  0  0  0  0  0  0  0  0  0  0
    2.1434    2.0625    0.0000 R#  0  0  0  0  0  0  0  0  0  0  0  0
 11  1  1  0
  2  1  1  1
  2  3  1  0
  3 12  1  0
  3  4  2  0
  2  5  1  0
  5  6  2  0
  6  7  1  0
  7  8  2  0
  8  9  1  0
  9 10  2  0
  5 10  1  0
M  RGP  2  11   1  12   2
V   11 *
V   12 *
M  END
>  <m_name>  (94)
D-2-phenylglycine

>  <symbol>  (94)
D_Phg

>  <m_abbr>  (94)
D_Phg

>  <m_type>  (94)
aa

>  <m_subtype>  (94)
non-natural

>  <m_Rgroups>  (94)
H,OH,None,None

>  <m_RgroupIdx>  (94)
10,11,None,None

>  <m_attachmentPointIdx>  (94)
0,2,None,None

>  <natAnalog>  (94)
G

>  <pdbName>  (94)
DJ5

$$$$

     RDKit          2D

 12 11  0  0  0  0  0  0  0  0999 V2000
   -0.8250   -2.8579    0.0000 C   0  0  0  0  0  0  0  0  0  0  0  0
   -0.4125   -2.1434    0.0000 C   0  0  0  0  0  0  0  0  0  0  0  0
    0.3020   -2.5559    0.0000 C   0  0  0  0  0  0  0  0  0  0  0  0
   -1.1270   -1.7309    0.0000 C   0  0  0  0  0  0  0  0  0  0  0  0
    0.0000   -1.4289    0.0000 O   0  0  0  0  0  0  0  0  0  0  0  0
    0.8250   -1.4289    0.0000 C   0  0  0  0  0  0  0  0  0  0  0  0
    1.2375   -0.7145    0.0000 C   0  0  0  0  0  0  0  0  0  0  0  0
    2.0625   -0.7145    0.0000 N   0  0  0  0  0  0  0  0  0  0  0  0
    0.8250    0.0000    0.0000 C   0  0  0  0  0  0  0  0  0  0  0  0
    0.0000    0.0000    0.0000 O   0  0  0  0  0  0  0  0  0  0  0  0
    2.4750    0.0000    0.0000 R#  0  0  0  0  0  0  0  0  0  0  0  0
    1.2375    0.7145    0.0000 R#  0  0  0  0  0  0  0  0  0  0  0  0
  1  2  1  0
  2  3  1  0
  2  4  1  0
  2  5  1  0
  5  6  1  0
  7  6  1  6
  7  8  1  0
  8 11  1  0
  7  9  1  0
  9 12  1  0
  9 10  2  0
M  RGP  2  11   1  12   2
V   11 *
V   12 *
M  END
>  <m_name>  (95)
O-tert-Butyl-D-serine

>  <symbol>  (95)
D_Ser_tBu

>  <m_abbr>  (95)
D_Ser_tBu

>  <m_type>  (95)
aa

>  <m_subtype>  (95)
non-natural

>  <m_Rgroups>  (95)
H,OH,None,None

>  <m_RgroupIdx>  (95)
10,11,None,None

>  <m_attachmentPointIdx>  (95)
7,8,None,None

>  <natAnalog>  (95)
S

>  <pdbName>  (95)
DJ7

$$$$

     RDKit          2D

 11 10  0  0  0  0  0  0  0  0999 V2000
   -0.8250   -1.4289    0.0000 O   0  0  0  0  0  0  0  0  0  0  0  0
    0.0000   -1.4289    0.0000 S   0  0  0  0  0  0  0  0  0  0  0  0
    0.0000   -2.2539    0.0000 O   0  0  0  0  0  0  0  0  0  0  0  0
    0.0000   -0.6039    0.0000 O   0  0  0  0  0  0  0  0  0  0  0  0
    0.8250   -1.4289    0.0000 C   0  0  0  0  0  0  0  0  0  0  0  0
    1.2375   -0.7145    0.0000 C   0  0  0  0  0  0  0  0  0  0  0  0
    2.0625   -0.7145    0.0000 N   0  0  0  0  0  0  0  0  0  0  0  0
    0.8250    0.0000    0.0000 C   0  0  0  0  0  0  0  0  0  0  0  0
    0.0000    0.0000    0.0000 O   0  0  0  0  0  0  0  0  0  0  0  0
    2.4750    0.0000    0.0000 R#  0  0  0  0  0  0  0  0  0  0  0  0
    1.2375    0.7145    0.0000 R#  0  0  0  0  0  0  0  0  0  0  0  0
  1  2  1  0
  2  3  2  0
  2  4  2  0
  2  5  1  0
  6  5  1  1
  6  7  1  0
  7 10  1  0
  6  8  1  0
  8 11  1  0
  8  9  2  0
M  RGP  2  10   1  11   2
V   10 *
V   11 *
M  END
>  <m_name>  (96)
3-Sulfoalanine

>  <symbol>  (96)
Cya

>  <m_abbr>  (96)
Cya

>  <m_type>  (96)
aa

>  <m_subtype>  (96)
non-natural

>  <m_Rgroups>  (96)
H,OH,None,None

>  <m_RgroupIdx>  (96)
9,10,None,None

>  <m_attachmentPointIdx>  (96)
6,7,None,None

>  <natAnalog>  (96)
A

>  <pdbName>  (96)
CY2

$$$$

     RDKit          2D

 14 13  0  0  0  0  0  0  0  0999 V2000
   -0.9059    2.1730    0.0000 C   0  0  0  0  0  0  0  0  0  0  0  0
   -0.1914    1.7605    0.0000 N   0  0  0  0  0  0  0  0  0  0  0  0
   -0.6039    1.0461    0.0000 C   0  0  0  0  0  0  0  0  0  0  0  0
    0.2211    2.4750    0.0000 C   0  0  0  0  0  0  0  0  0  0  0  0
    0.5230    1.3480    0.0000 C   0  0  0  0  0  0  0  0  0  0  0  0
    0.5230    0.5230    0.0000 C   0  0  0  0  0  0  0  0  0  0  0  0
    1.2375    0.1105    0.0000 C   0  0  0  0  0  0  0  0  0  0  0  0
    1.2375   -0.7145    0.0000 C   0  0  0  0  0  0  0  0  0  0  0  0
    1.9520   -1.1270    0.0000 C   0  0  0  0  0  0  0  0  0  0  0  0
    1.9520   -1.9520    0.0000 N   0  0  0  0  0  0  0  0  0  0  0  0
    2.6664   -0.7145    0.0000 C   0  0  0  0  0  0  0  0  0  0  0  0
    3.3809   -1.1270    0.0000 O   0  0  0  0  0  0  0  0  0  0  0  0
    2.6664   -2.3645    0.0000 R#  0  0  0  0  0  0  0  0  0  0  0  0
    2.6664    0.1105    0.0000 R#  0  0  0  0  0  0  0  0  0  0  0  0
  1  2  1  0
  2  3  1  0
  2  4  1  0
  2  5  1  0
  5  6  1  0
  6  7  1  0
  7  8  1  0
  9  8  1  1
  9 10  1  0
 10 13  1  0
  9 11  1  0
 11 14  1  0
 11 12  2  0
M  CHG  1   2   1
M  RGP  2  13   1  14   2
V   13 *
V   14 *
M  END
>  <m_name>  (97)
Epsilon-N-trimethyllysine

>  <symbol>  (97)
Lys_Me3

>  <m_abbr>  (97)
Lys_Me3

>  <m_type>  (97)
aa

>  <m_subtype>  (97)
non-natural

>  <m_Rgroups>  (97)
H,OH,None,None

>  <m_RgroupIdx>  (97)
12,13,None,None

>  <m_attachmentPointIdx>  (97)
9,10,None,None

>  <natAnalog>  (97)
K

>  <pdbName>  (97)
LYY

$$$$

     RDKit          2D

 11 10  0  0  0  0  0  0  0  0999 V2000
    1.6500    0.0000    0.0000 C   0  0  0  0  0  0  0  0  0  0  0  0
    1.2375    0.7145    0.0000 C   0  0  0  0  0  0  0  0  0  0  0  0
    0.8250    1.4289    0.0000 C   0  0  0  0  0  0  0  0  0  0  0  0
    0.5230    0.3020    0.0000 S   0  0  0  0  0  0  0  0  0  0  0  0
    1.9520    1.1270    0.0000 C   0  0  0  0  0  0  0  0  0  0  0  0
    2.6664    0.7145    0.0000 N   0  0  0  0  0  0  0  0  0  0  0  0
    1.9520    1.9520    0.0000 C   0  0  0  0  0  0  0  0  0  0  0  0
    1.2375    2.3645    0.0000 O   0  0  0  0  0  0  0  0  0  0  0  0
   -0.1914    0.7145    0.0000 R#  0  0  0  0  0  0  0  0  0  0  0  0
    3.3809    1.1270    0.0000 R#  0  0  0  0  0  0  0  0  0  0  0  0
    2.6664    2.3645    0.0000 R#  0  0  0  0  0  0  0  0  0  0  0  0
  1  2  1  0
  2  3  1  0
  2  4  1  0
  4  9  1  0
  5  2  1  0
  5  6  1  1
  6 10  1  0
  5  7  1  0
  7 11  1  0
  7  8  2  0
M  RGP  3   9   3  10   1  11   2
V    9 *
V   10 *
V   11 *
M  END
>  <m_name>  (98)
Penicillamine (3-mercaptovaline)

>  <symbol>  (98)
Pen

>  <m_abbr>  (98)
Pen

>  <m_type>  (98)
aa

>  <m_subtype>  (98)
non-natural

>  <m_Rgroups>  (98)
H,OH,H,None

>  <m_RgroupIdx>  (98)
9,10,8,None

>  <m_attachmentPointIdx>  (98)
5,6,3,None

>  <natAnalog>  (98)
V

>  <pdbName>  (98)
PES

$$$$

     RDKit          2D

 14 14  0  0  0  0  0  0  0  0999 V2000
    0.7145    2.0625    0.0000 C   0  0  0  0  0  0  0  0  0  0  0  0
    0.7145    1.2375    0.0000 C   0  0  0  0  0  0  0  0  0  0  0  0
    1.4289    0.8250    0.0000 C   0  0  0  0  0  0  0  0  0  0  0  0
    1.4289    0.0000    0.0000 C   0  0  0  0  0  0  0  0  0  0  0  0
    0.7145   -0.4125    0.0000 C   0  0  0  0  0  0  0  0  0  0  0  0
    0.7145   -1.2375    0.0000 C   0  0  0  0  0  0  0  0  0  0  0  0
    1.4289   -1.6500    0.0000 C   0  0  0  0  0  0  0  0  0  0  0  0
    1.4289   -2.4750    0.0000 N   0  0  0  0  0  0  0  0  0  0  0  0
    2.1434   -1.2375    0.0000 C   0  0  0  0  0  0  0  0  0  0  0  0
    2.1434   -0.4125    0.0000 O   0  0  0  0  0  0  0  0  0  0  0  0
    0.0000    0.0000    0.0000 C   0  0  0  0  0  0  0  0  0  0  0  0
    0.0000    0.8250    0.0000 C   0  0  0  0  0  0  0  0  0  0  0  0
    2.1434   -2.8875    0.0000 R#  0  0  0  0  0  0  0  0  0  0  0  0
    2.8579   -1.6500    0.0000 R#  0  0  0  0  0  0  0  0  0  0  0  0
  1  2  1  0
  2  3  2  0
  3  4  1  0
  4  5  2  0
  5  6  1  0
  7  6  1  1
  7  8  1  0
  8 13  1  0
  7  9  1  0
  9 14  1  0
  9 10  2  0
  5 11  1  0
 11 12  2  0
  2 12  1  0
M  RGP  2  13   1  14   2
V   13 *
V   14 *
M  END
>  <m_name>  (99)
p-Methylphenylalanine

>  <symbol>  (99)
Phe_4Me

>  <m_abbr>  (99)
Phe_4Me

>  <m_type>  (99)
aa

>  <m_subtype>  (99)
non-natural

>  <m_Rgroups>  (99)
H,OH,None,None

>  <m_RgroupIdx>  (99)
12,13,None,None

>  <m_attachmentPointIdx>  (99)
7,8,None,None

>  <natAnalog>  (99)
F

>  <pdbName>  (99)
PGB

$$$$

     RDKit          2D

 15 15  0  0  0  0  0  0  0  0999 V2000
    3.1895   -2.6664    0.0000 N   0  0  0  0  0  0  0  0  0  0  0  0
    2.7770   -1.9520    0.0000 C   0  0  0  0  0  0  0  0  0  0  0  0
    1.9520   -1.9520    0.0000 C   0  0  0  0  0  0  0  0  0  0  0  0
    1.5395   -1.2375    0.0000 O   0  0  0  0  0  0  0  0  0  0  0  0
    0.7145   -1.2375    0.0000 C   0  0  0  0  0  0  0  0  0  0  0  0
    0.3020   -0.5230    0.0000 C   0  0  0  0  0  0  0  0  0  0  0  0
   -0.5230   -0.5230    0.0000 C   0  0  0  0  0  0  0  0  0  0  0  0
   -0.9355    0.1914    0.0000 C   0  0  0  0  0  0  0  0  0  0  0  0
   -0.5230    0.9059    0.0000 C   0  0  0  0  0  0  0  0  0  0  0  0
    0.3020    0.9059    0.0000 C   0  0  0  0  0  0  0  0  0  0  0  0
    0.7145    0.1914    0.0000 C   0  0  0  0  0  0  0  0  0  0  0  0
    3.1895   -1.2375    0.0000 C   0  0  0  0  0  0  0  0  0  0  0  0
    4.0145   -1.2375    0.0000 O   0  0  0  0  0  0  0  0  0  0  0  0
    4.0145   -2.6664    0.0000 R#  0  0  0  0  0  0  0  0  0  0  0  0
    2.7770   -0.5230    0.0000 R#  0  0  0  0  0  0  0  0  0  0  0  0
 14  1  1  0
  2  1  1  0
  2  3  1  1
  3  4  1  0
  4  5  1  0
  5  6  1  0
  6  7  2  0
  7  8  1  0
  8  9  2  0
  9 10  1  0
 10 11  2  0
  6 11  1  0
  2 12  1  0
 12 15  1  0
 12 13  2  0
M  RGP  2  14   1  15   2
V   14 *
V   15 *
M  END
>  <m_name>  (100)
O-Benzyl-L-serine

>  <symbol>  (100)
Ser_Bn

>  <m_abbr>  (100)
Ser_Bn

>  <m_type>  (100)
aa

>  <m_subtype>  (100)
non-natural

>  <m_Rgroups>  (100)
H,OH,None,None

>  <m_RgroupIdx>  (100)
13,14,None,None

>  <m_attachmentPointIdx>  (100)
0,11,None,None

>  <natAnalog>  (100)
S

>  <pdbName>  (100)
SEQ

$$$$

     RDKit          2D

 18 18  0  0  0  0  0  0  0  0999 V2000
   -0.7145    2.8875    0.0000 C   0  0  0  0  0  0  0  0  0  0  0  0
    0.0000    2.4750    0.0000 C   0  0  0  0  0  0  0  0  0  0  0  0
   -0.4125    1.7605    0.0000 C   0  0  0  0  0  0  0  0  0  0  0  0
    0.4125    3.1895    0.0000 C   0  0  0  0  0  0  0  0  0  0  0  0
    0.7145    2.0625    0.0000 O   0  0  0  0  0  0  0  0  0  0  0  0
    0.7145    1.2375    0.0000 C   0  0  0  0  0  0  0  0  0  0  0  0
    1.4289    0.8250    0.0000 C   0  0  0  0  0  0  0  0  0  0  0  0
    1.4289    0.0000    0.0000 C   0  0  0  0  0  0  0  0  0  0  0  0
    0.7145   -0.4125    0.0000 C   0  0  0  0  0  0  0  0  0  0  0  0
    0.7145   -1.2375    0.0000 C   0  0  0  0  0  0  0  0  0  0  0  0
    1.4289   -1.6500    0.0000 C   0  0  0  0  0  0  0  0  0  0  0  0
    1.4289   -2.4750    0.0000 N   0  0  0  0  0  0  0  0  0  0  0  0
    2.1434   -1.2375    0.0000 C   0  0  0  0  0  0  0  0  0  0  0  0
    2.1434   -0.4125    0.0000 O   0  0  0  0  0  0  0  0  0  0  0  0
    0.0000    0.0000    0.0000 C   0  0  0  0  0  0  0  0  0  0  0  0
    0.0000    0.8250    0.0000 C   0  0  0  0  0  0  0  0  0  0  0  0
    2.1434   -2.8875    0.0000 R#  0  0  0  0  0  0  0  0  0  0  0  0
    2.8579   -1.6500    0.0000 R#  0  0  0  0  0  0  0  0  0  0  0  0
  1  2  1  0
  2  3  1  0
  2  4  1  0
  2  5  1  0
  5  6  1  0
  6  7  2  0
  7  8  1  0
  8  9  2  0
  9 10  1  0
 11 10  1  1
 11 12  1  0
 12 17  1  0
 11 13  1  0
 13 18  1  0
 13 14  2  0
  9 15  1  0
 15 16  2  0
  6 16  1  0
M  RGP  2  17   1  18   2
V   17 *
V   18 *
M  END
>  <m_name>  (101)
O-tert-Butyl-L-tyrosine

>  <symbol>  (101)
Tyr_tBu

>  <m_abbr>  (101)
Tyr_tBu

>  <m_type>  (101)
aa

>  <m_subtype>  (101)
non-natural

>  <m_Rgroups>  (101)
H,OH,None,None

>  <m_RgroupIdx>  (101)
16,17,None,None

>  <m_attachmentPointIdx>  (101)
11,12,None,None

>  <natAnalog>  (101)
Y

>  <pdbName>  (101)
TYK

$$$$

     RDKit          2D

 17 18  0  0  0  0  0  0  0  0999 V2000
   -0.7145   -2.8875    0.0000 N   0  0  0  0  0  0  0  0  0  0  0  0
    0.0000   -2.4750    0.0000 C   0  0  0  0  0  0  0  0  0  0  0  0
    0.0000   -1.6500    0.0000 C   0  0  0  0  0  0  0  0  0  0  0  0
    0.7145   -1.2375    0.0000 C   0  0  0  0  0  0  0  0  0  0  0  0
    0.7145   -0.4125    0.0000 C   0  0  0  0  0  0  0  0  0  0  0  0
    1.4289    0.0000    0.0000 C   0  0  0  0  0  0  0  0  0  0  0  0
    2.1434   -0.4125    0.0000 C   0  0  0  0  0  0  0  0  0  0  0  0
    2.8579    0.0000    0.0000 C   0  0  0  0  0  0  0  0  0  0  0  0
    3.5724   -0.4125    0.0000 C   0  0  0  0  0  0  0  0  0  0  0  0
    3.5724   -1.2375    0.0000 C   0  0  0  0  0  0  0  0  0  0  0  0
    2.8579   -1.6500    0.0000 C   0  0  0  0  0  0  0  0  0  0  0  0
    2.1434   -1.2375    0.0000 C   0  0  0  0  0  0  0  0  0  0  0  0
    1.4289   -1.6500    0.0000 C   0  0  0  0  0  0  0  0  0  0  0  0
    0.7145   -2.8875    0.0000 C   0  0  0  0  0  0  0  0  0  0  0  0
    0.7145   -3.7125    0.0000 O   0  0  0  0  0  0  0  0  0  0  0  0
   -0.7145   -3.7125    0.0000 R#  0  0  0  0  0  0  0  0  0  0  0  0
    1.4289   -2.4750    0.0000 R#  0  0  0  0  0  0  0  0  0  0  0  0
 16  1  1  0
  2  1  1  0
  2  3  1  1
  3  4  1  0
  4  5  2  0
  5  6  1  0
  6  7  2  0
  7  8  1  0
  8  9  2  0
  9 10  1  0
 10 11  2  0
 11 12  1  0
  7 12  1  0
 12 13  2  0
  4 13  1  0
  2 14  1  0
 14 17  1  0
 14 15  2  0
M  RGP  2  16   1  17   2
V   16 *
V   17 *
M  END
>  <m_name>  (102)
3-Naphthylalanine

>  <symbol>  (102)
2Nal

>  <m_abbr>  (102)
2Nal

>  <m_type>  (102)
aa

>  <m_subtype>  (102)
non-natural

>  <m_Rgroups>  (102)
H,OH,None,None

>  <m_RgroupIdx>  (102)
15,16,None,None

>  <m_attachmentPointIdx>  (102)
0,13,None,None

>  <natAnalog>  (102)
A

>  <pdbName>  (102)
2NN

$$$$

     RDKit          2D

 12 12  0  0  0  0  0  0  0  0999 V2000
   -0.1467    3.1768    0.0000 N   0  0  0  0  0  0  0  0  0  0  0  0
   -0.1467    2.3518    0.0000 C   0  0  0  0  0  0  0  0  0  0  0  0
    0.5678    1.9393    0.0000 C   0  0  0  0  0  0  0  0  0  0  0  0
    0.5678    1.1143    0.0000 C   0  0  0  0  0  0  0  0  0  0  0  0
    1.2352    0.6294    0.0000 C   0  0  0  0  0  0  0  0  0  0  0  0
    0.9803   -0.1553    0.0000 C   0  0  0  0  0  0  0  0  0  0  0  0
    0.1553   -0.1553    0.0000 C   0  0  0  0  0  0  0  0  0  0  0  0
   -0.0997    0.6294    0.0000 S   0  0  0  0  0  0  0  0  0  0  0  0
   -0.8612    1.9393    0.0000 C   0  0  0  0  0  0  0  0  0  0  0  0
   -1.5757    2.3518    0.0000 O   0  0  0  0  0  0  0  0  0  0  0  0
   -0.8612    3.5893    0.0000 R#  0  0  0  0  0  0  0  0  0  0  0  0
   -0.8612    1.1143    0.0000 R#  0  0  0  0  0  0  0  0  0  0  0  0
 11  1  1  0
  2  1  1  0
  2  3  1  1
  3  4  1  0
  4  5  2  0
  5  6  1  0
  6  7  2  0
  7  8  1  0
  4  8  1  0
  2  9  1  0
  9 12  1  0
  9 10  2  0
M  RGP  2  11   1  12   2
V   11 *
V   12 *
M  END
>  <m_name>  (103)
3-thienylalanine

>  <symbol>  (103)
Thi

>  <m_abbr>  (103)
Thi

>  <m_type>  (103)
aa

>  <m_subtype>  (103)
non-natural

>  <m_Rgroups>  (103)
H,OH,None,None

>  <m_RgroupIdx>  (103)
10,11,None,None

>  <m_attachmentPointIdx>  (103)
0,8,None,None

>  <natAnalog>  (103)
A

>  <pdbName>  (103)
TAI

$$$$

     RDKit          2D

 10 10  0  0  0  0  0  0  0  0999 V2000
    0.5678    1.9393    0.0000 O   0  0  0  0  0  0  0  0  0  0  0  0
    0.5678    1.1143    0.0000 C   0  0  0  0  0  0  0  0  0  0  0  0
    1.2352    0.6294    0.0000 C   0  0  0  0  0  0  0  0  0  0  0  0
    0.9803   -0.1553    0.0000 C   0  0  0  0  0  0  0  0  0  0  0  0
    0.1553   -0.1553    0.0000 N   0  0  0  0  0  0  0  0  0  0  0  0
   -0.0997    0.6294    0.0000 C   0  0  0  0  0  0  0  0  0  0  0  0
    1.4652   -0.8227    0.0000 C   0  0  0  0  0  0  0  0  0  0  0  0
    1.1296   -1.5764    0.0000 O   0  0  0  0  0  0  0  0  0  0  0  0
   -0.3297   -0.8227    0.0000 R#  0  0  0  0  0  0  0  0  0  0  0  0
    2.2857   -0.7365    0.0000 R#  0  0  0  0  0  0  0  0  0  0  0  0
  2  1  1  1
  2  3  1  0
  4  3  1  0
  4  5  1  0
  5  9  1  0
  5  6  1  0
  2  6  1  0
  4  7  1  1
  7 10  1  0
  7  8  2  0
M  RGP  2   9   1  10   2
V    9 *
V   10 *
M  END
>  <m_name>  (104)
L-allo-4-hydroxyproline

>  <symbol>  (104)
aHyp

>  <m_abbr>  (104)
aHyp

>  <m_type>  (104)
aa

>  <m_subtype>  (104)
non-natural

>  <m_Rgroups>  (104)
H,OH,None,None

>  <m_RgroupIdx>  (104)
8,9,None,None

>  <m_attachmentPointIdx>  (104)
4,6,None,None

>  <natAnalog>  (104)
P

>  <pdbName>  (104)
AHJ

$$$$

     RDKit          2D

 10  9  0  0  0  0  0  0  0  0999 V2000
    0.4125   -2.1434    0.0000 C   0  0  0  0  0  0  0  0  0  0  0  0
    0.8250   -1.4289    0.0000 C   0  0  0  0  0  0  0  0  0  0  0  0
    1.5395   -1.8414    0.0000 C   0  0  0  0  0  0  0  0  0  0  0  0
    0.1105   -1.0164    0.0000 C   0  0  0  0  0  0  0  0  0  0  0  0
    1.2375   -0.7145    0.0000 C   0  0  0  0  0  0  0  0  0  0  0  0
    2.0625   -0.7145    0.0000 N   0  0  0  0  0  0  0  0  0  0  0  0
    0.8250    0.0000    0.0000 C   0  0  0  0  0  0  0  0  0  0  0  0
    0.0000    0.0000    0.0000 O   0  0  0  0  0  0  0  0  0  0  0  0
    2.4750    0.0000    0.0000 R#  0  0  0  0  0  0  0  0  0  0  0  0
    1.2375    0.7145    0.0000 R#  0  0  0  0  0  0  0  0  0  0  0  0
  1  2  1  0
  2  3  1  0
  2  4  1  0
  5  2  1  0
  5  6  1  1
  6  9  1  0
  5  7  1  0
  7 10  1  0
  7  8  2  0
M  RGP  2   9   1  10   2
V    9 *
V   10 *
M  END
>  <m_name>  (105)
3-Methylvaline

>  <symbol>  (105)
Ala_tBu

>  <m_abbr>  (105)
Ala_tBu

>  <m_type>  (105)
aa

>  <m_subtype>  (105)
non-natural

>  <m_Rgroups>  (105)
H,OH,None,None

>  <m_RgroupIdx>  (105)
8,9,None,None

>  <m_attachmentPointIdx>  (105)
5,6,None,None

>  <natAnalog>  (105)
A

>  <pdbName>  (105)
AAJ

$$$$

     RDKit          2D

 14 14  0  0  0  0  0  0  0  0999 V2000
    2.1434   -0.4125    0.0000 N   0  0  0  0  0  0  0  0  0  0  0  0
    2.1434   -1.2375    0.0000 C   0  0  0  0  0  0  0  0  0  0  0  0
    1.4289   -1.6500    0.0000 C   0  0  0  0  0  0  0  0  0  0  0  0
    1.4289   -2.4750    0.0000 C   0  0  0  0  0  0  0  0  0  0  0  0
    0.7145   -2.8875    0.0000 C   0  0  0  0  0  0  0  0  0  0  0  0
    0.7145   -3.7125    0.0000 C   0  0  0  0  0  0  0  0  0  0  0  0
    0.0000   -4.1250    0.0000 C   0  0  0  0  0  0  0  0  0  0  0  0
   -0.7145   -3.7125    0.0000 C   0  0  0  0  0  0  0  0  0  0  0  0
   -0.7145   -2.8875    0.0000 C   0  0  0  0  0  0  0  0  0  0  0  0
    0.0000   -2.4750    0.0000 C   0  0  0  0  0  0  0  0  0  0  0  0
    2.8579   -1.6500    0.0000 C   0  0  0  0  0  0  0  0  0  0  0  0
    2.8579   -2.4750    0.0000 O   0  0  0  0  0  0  0  0  0  0  0  0
    2.8579    0.0000    0.0000 R#  0  0  0  0  0  0  0  0  0  0  0  0
    3.5724   -1.2375    0.0000 R#  0  0  0  0  0  0  0  0  0  0  0  0
 13  1  1  0
  2  1  1  0
  2  3  1  6
  3  4  1  0
  4  5  1  0
  5  6  2  0
  6  7  1  0
  7  8  2  0
  8  9  1  0
  9 10  2  0
  5 10  1  0
  2 11  1  0
 11 14  1  0
 11 12  2  0
M  RGP  2  13   1  14   2
V   13 *
V   14 *
M  END
>  <m_name>  (106)
Homophenylalanine

>  <symbol>  (106)
hPhe

>  <m_abbr>  (106)
hPhe

>  <m_type>  (106)
aa

>  <m_subtype>  (106)
non-natural

>  <m_Rgroups>  (106)
H,OH,None,None

>  <m_RgroupIdx>  (106)
12,13,None,None

>  <m_attachmentPointIdx>  (106)
0,10,None,None

>  <natAnalog>  (106)
F

>  <pdbName>  (106)
HP9

$$$$

     RDKit          2D

 17 18  0  0  0  0  0  0  0  0999 V2000
    0.7145   -3.7125    0.0000 N   0  0  0  0  0  0  0  0  0  0  0  0
    0.7145   -2.8875    0.0000 C   0  0  0  0  0  0  0  0  0  0  0  0
    1.4289   -2.4750    0.0000 C   0  0  0  0  0  0  0  0  0  0  0  0
    1.4289   -1.6500    0.0000 C   0  0  0  0  0  0  0  0  0  0  0  0
    0.7145   -1.2375    0.0000 C   0  0  0  0  0  0  0  0  0  0  0  0
    0.7145   -0.4125    0.0000 C   0  0  0  0  0  0  0  0  0  0  0  0
    1.4289    0.0000    0.0000 C   0  0  0  0  0  0  0  0  0  0  0  0
    2.1434   -0.4125    0.0000 C   0  0  0  0  0  0  0  0  0  0  0  0
    2.8579    0.0000    0.0000 C   0  0  0  0  0  0  0  0  0  0  0  0
    3.5724   -0.4125    0.0000 C   0  0  0  0  0  0  0  0  0  0  0  0
    3.5724   -1.2375    0.0000 C   0  0  0  0  0  0  0  0  0  0  0  0
    2.8579   -1.6500    0.0000 C   0  0  0  0  0  0  0  0  0  0  0  0
    2.1434   -1.2375    0.0000 C   0  0  0  0  0  0  0  0  0  0  0  0
    0.0000   -2.4750    0.0000 C   0  0  0  0  0  0  0  0  0  0  0  0
   -0.7145   -2.8875    0.0000 O   0  0  0  0  0  0  0  0  0  0  0  0
    0.0000   -4.1250    0.0000 R#  0  0  0  0  0  0  0  0  0  0  0  0
    0.0000   -1.6500    0.0000 R#  0  0  0  0  0  0  0  0  0  0  0  0
 16  1  1  0
  2  1  1  0
  2  3  1  1
  3  4  1  0
  4  5  2  0
  5  6  1  0
  6  7  2  0
  7  8  1  0
  8  9  2  0
  9 10  1  0
 10 11  2  0
 11 12  1  0
 12 13  2  0
  4 13  1  0
  8 13  1  0
  2 14  1  0
 14 17  1  0
 14 15  2  0
M  RGP  2  16   1  17   2
V   16 *
V   17 *
M  END
>  <m_name>  (107)
D-3-(1-naphthyl)-alanine

>  <symbol>  (107)
D_1Nal

>  <m_abbr>  (107)
D_1Nal

>  <m_type>  (107)
aa

>  <m_subtype>  (107)
non-natural

>  <m_Rgroups>  (107)
H,OH,None,None

>  <m_RgroupIdx>  (107)
15,16,None,None

>  <m_attachmentPointIdx>  (107)
0,13,None,None

>  <natAnalog>  (107)
A

>  <pdbName>  (107)
D1E

$$$$

     RDKit          2D

  9  8  0  0  0  0  0  0  0  0999 V2000
    0.0000   -1.4289    0.0000 C   0  0  0  0  0  0  0  0  0  0  0  0
    0.8250   -1.4289    0.0000 C   0  0  0  0  0  0  0  0  0  0  0  0
    1.2375   -2.1434    0.0000 O   0  0  0  0  0  0  0  0  0  0  0  0
    1.2375   -0.7145    0.0000 C   0  0  0  0  0  0  0  0  0  0  0  0
    2.0625   -0.7145    0.0000 N   0  0  0  0  0  0  0  0  0  0  0  0
    0.8250    0.0000    0.0000 C   0  0  0  0  0  0  0  0  0  0  0  0
    0.0000    0.0000    0.0000 O   0  0  0  0  0  0  0  0  0  0  0  0
    2.4750    0.0000    0.0000 R#  0  0  0  0  0  0  0  0  0  0  0  0
    1.2375    0.7145    0.0000 R#  0  0  0  0  0  0  0  0  0  0  0  0
  2  1  1  6
  2  3  1  0
  2  4  1  0
  4  5  1  6
  5  8  1  0
  4  6  1  0
  6  9  1  0
  6  7  2  0
M  RGP  2   8   1   9   2
V    8 *
V    9 *
M  END
>  <m_name>  (108)
D-allo-Threonine

>  <symbol>  (108)
D_aThr

>  <m_abbr>  (108)
D_aThr

>  <m_type>  (108)
aa

>  <m_subtype>  (108)
non-natural

>  <m_Rgroups>  (108)
H,OH,None,None

>  <m_RgroupIdx>  (108)
7,8,None,None

>  <m_attachmentPointIdx>  (108)
4,5,None,None

>  <natAnalog>  (108)
T

>  <pdbName>  (108)
DKC

$$$$

     RDKit          2D

 13 13  0  0  0  0  0  0  0  0999 V2000
    0.0000    3.3000    0.0000 N   0  0  0  0  0  0  0  0  0  0  0  0
    0.0000    2.4750    0.0000 C   0  0  0  0  0  0  0  0  0  0  0  0
    0.7145    2.0625    0.0000 C   0  0  0  0  0  0  0  0  0  0  0  0
    0.7145    1.2375    0.0000 C   0  0  0  0  0  0  0  0  0  0  0  0
    1.4289    0.8250    0.0000 C   0  0  0  0  0  0  0  0  0  0  0  0
    1.4289    0.0000    0.0000 C   0  0  0  0  0  0  0  0  0  0  0  0
    0.7145   -0.4125    0.0000 C   0  0  0  0  0  0  0  0  0  0  0  0
    0.0000    0.0000    0.0000 C   0  0  0  0  0  0  0  0  0  0  0  0
    0.0000    0.8250    0.0000 C   0  0  0  0  0  0  0  0  0  0  0  0
   -0.7145    2.0625    0.0000 C   0  0  0  0  0  0  0  0  0  0  0  0
   -1.4289    2.4750    0.0000 O   0  0  0  0  0  0  0  0  0  0  0  0
   -0.7145    3.7125    0.0000 R#  0  0  0  0  0  0  0  0  0  0  0  0
   -0.7145    1.2375    0.0000 R#  0  0  0  0  0  0  0  0  0  0  0  0
 12  1  1  0
  2  1  1  0
  2  3  1  6
  3  4  1  0
  4  5  1  0
  5  6  1  0
  6  7  1  0
  7  8  1  0
  8  9  1  0
  4  9  1  0
  2 10  1  0
 10 13  1  0
 10 11  2  0
M  RGP  2  12   1  13   2
V   12 *
V   13 *
M  END
>  <m_name>  (109)
D-2-Amino-3-cyclohexyl-propionic acid

>  <symbol>  (109)
D_Cha

>  <m_abbr>  (109)
D_Cha

>  <m_type>  (109)
aa

>  <m_subtype>  (109)
non-natural

>  <m_Rgroups>  (109)
H,OH,None,None

>  <m_RgroupIdx>  (109)
11,12,None,None

>  <m_attachmentPointIdx>  (109)
0,9,None,None

>  <natAnalog>  (109)
A

>  <pdbName>  (109)
DLQ

$$$$

     RDKit          2D

 11 10  0  0  0  0  0  0  0  0999 V2000
    1.6500    0.0000    0.0000 C   0  0  0  0  0  0  0  0  0  0  0  0
    1.2375    0.7145    0.0000 C   0  0  0  0  0  0  0  0  0  0  0  0
    0.8250    1.4289    0.0000 C   0  0  0  0  0  0  0  0  0  0  0  0
    0.5230    0.3020    0.0000 S   0  0  0  0  0  0  0  0  0  0  0  0
    1.9520    1.1270    0.0000 C   0  0  0  0  0  0  0  0  0  0  0  0
    2.6664    0.7145    0.0000 N   0  0  0  0  0  0  0  0  0  0  0  0
    1.9520    1.9520    0.0000 C   0  0  0  0  0  0  0  0  0  0  0  0
    1.2375    2.3645    0.0000 O   0  0  0  0  0  0  0  0  0  0  0  0
   -0.1914    0.7145    0.0000 R#  0  0  0  0  0  0  0  0  0  0  0  0
    3.3809    1.1270    0.0000 R#  0  0  0  0  0  0  0  0  0  0  0  0
    2.6664    2.3645    0.0000 R#  0  0  0  0  0  0  0  0  0  0  0  0
  1  2  1  0
  2  3  1  0
  2  4  1  0
  4  9  1  0
  5  2  1  0
  5  6  1  6
  6 10  1  0
  5  7  1  0
  7 11  1  0
  7  8  2  0
M  RGP  3   9   3  10   1  11   2
V    9 *
V   10 *
V   11 *
M  END
>  <m_name>  (110)
D-penicillamine (3-mercaptovaline)

>  <symbol>  (110)
D_Pen

>  <m_abbr>  (110)
D_Pen

>  <m_type>  (110)
aa

>  <m_subtype>  (110)
non-natural

>  <m_Rgroups>  (110)
H,OH,H,None

>  <m_RgroupIdx>  (110)
9,10,8,None

>  <m_attachmentPointIdx>  (110)
5,6,3,None

>  <natAnalog>  (110)
V

>  <pdbName>  (110)
DLV

$$$$

     RDKit          2D

 14 14  0  0  0  0  0  0  0  0999 V2000
    0.7145    2.0625    0.0000 Cl  0  0  0  0  0  0  0  0  0  0  0  0
    0.7145    1.2375    0.0000 C   0  0  0  0  0  0  0  0  0  0  0  0
    1.4289    0.8250    0.0000 C   0  0  0  0  0  0  0  0  0  0  0  0
    1.4289    0.0000    0.0000 C   0  0  0  0  0  0  0  0  0  0  0  0
    0.7145   -0.4125    0.0000 C   0  0  0  0  0  0  0  0  0  0  0  0
    0.7145   -1.2375    0.0000 C   0  0  0  0  0  0  0  0  0  0  0  0
    1.4289   -1.6500    0.0000 C   0  0  0  0  0  0  0  0  0  0  0  0
    1.4289   -2.4750    0.0000 N   0  0  0  0  0  0  0  0  0  0  0  0
    2.1434   -1.2375    0.0000 C   0  0  0  0  0  0  0  0  0  0  0  0
    2.1434   -0.4125    0.0000 O   0  0  0  0  0  0  0  0  0  0  0  0
    0.0000    0.0000    0.0000 C   0  0  0  0  0  0  0  0  0  0  0  0
    0.0000    0.8250    0.0000 C   0  0  0  0  0  0  0  0  0  0  0  0
    2.1434   -2.8875    0.0000 R#  0  0  0  0  0  0  0  0  0  0  0  0
    2.8579   -1.6500    0.0000 R#  0  0  0  0  0  0  0  0  0  0  0  0
  1  2  1  0
  2  3  2  0
  3  4  1  0
  4  5  2  0
  5  6  1  0
  7  6  1  6
  7  8  1  0
  8 13  1  0
  7  9  1  0
  9 14  1  0
  9 10  2  0
  5 11  1  0
 11 12  2  0
  2 12  1  0
M  RGP  2  13   1  14   2
V   13 *
V   14 *
M  END
>  <m_name>  (111)
4-Chloro-D-phenylalanine

>  <symbol>  (111)
D_Phe_4Cl

>  <m_abbr>  (111)
D_Phe_4Cl

>  <m_type>  (111)
aa

>  <m_subtype>  (111)
non-natural

>  <m_Rgroups>  (111)
H,OH,None,None

>  <m_RgroupIdx>  (111)
12,13,None,None

>  <m_attachmentPointIdx>  (111)
7,8,None,None

>  <natAnalog>  (111)
F

>  <pdbName>  (111)
DO0

$$$$

     RDKit          2D

 15 15  0  0  0  0  0  0  0  0999 V2000
    3.1895   -2.6664    0.0000 N   0  0  0  0  0  0  0  0  0  0  0  0
    2.7770   -1.9520    0.0000 C   0  0  0  0  0  0  0  0  0  0  0  0
    1.9520   -1.9520    0.0000 C   0  0  0  0  0  0  0  0  0  0  0  0
    1.5395   -1.2375    0.0000 O   0  0  0  0  0  0  0  0  0  0  0  0
    0.7145   -1.2375    0.0000 C   0  0  0  0  0  0  0  0  0  0  0  0
    0.3020   -0.5230    0.0000 C   0  0  0  0  0  0  0  0  0  0  0  0
   -0.5230   -0.5230    0.0000 C   0  0  0  0  0  0  0  0  0  0  0  0
   -0.9355    0.1914    0.0000 C   0  0  0  0  0  0  0  0  0  0  0  0
   -0.5230    0.9059    0.0000 C   0  0  0  0  0  0  0  0  0  0  0  0
    0.3020    0.9059    0.0000 C   0  0  0  0  0  0  0  0  0  0  0  0
    0.7145    0.1914    0.0000 C   0  0  0  0  0  0  0  0  0  0  0  0
    3.1895   -1.2375    0.0000 C   0  0  0  0  0  0  0  0  0  0  0  0
    4.0145   -1.2375    0.0000 O   0  0  0  0  0  0  0  0  0  0  0  0
    4.0145   -2.6664    0.0000 R#  0  0  0  0  0  0  0  0  0  0  0  0
    2.7770   -0.5230    0.0000 R#  0  0  0  0  0  0  0  0  0  0  0  0
 14  1  1  0
  2  1  1  0
  2  3  1  6
  3  4  1  0
  4  5  1  0
  5  6  1  0
  6  7  2  0
  7  8  1  0
  8  9  2  0
  9 10  1  0
 10 11  2  0
  6 11  1  0
  2 12  1  0
 12 15  1  0
 12 13  2  0
M  RGP  2  14   1  15   2
V   14 *
V   15 *
M  END
>  <m_name>  (112)
O-Benzyl-D-serine

>  <symbol>  (112)
D_Ser_Bn

>  <m_abbr>  (112)
D_Ser_Bn

>  <m_type>  (112)
aa

>  <m_subtype>  (112)
non-natural

>  <m_Rgroups>  (112)
H,OH,None,None

>  <m_RgroupIdx>  (112)
13,14,None,None

>  <m_attachmentPointIdx>  (112)
0,11,None,None

>  <natAnalog>  (112)
S

>  <pdbName>  (112)
DO7

$$$$

     RDKit          2D

 15 15  0  0  0  0  0  0  0  0999 V2000
   -0.7145    2.0625    0.0000 N   0  0  0  0  0  0  0  0  0  0  0  0
    0.0000    2.4750    0.0000 C   0  0  0  0  0  0  0  0  0  0  0  0
    0.7145    2.0625    0.0000 C   0  0  0  0  0  0  0  0  0  0  0  0
    0.7145    1.2375    0.0000 N   0  0  0  0  0  0  0  0  0  0  0  0
    1.4289    0.8250    0.0000 C   0  0  0  0  0  0  0  0  0  0  0  0
    1.4289    0.0000    0.0000 C   0  0  0  0  0  0  0  0  0  0  0  0
    0.7145   -0.4125    0.0000 C   0  0  0  0  0  0  0  0  0  0  0  0
    0.7145   -1.2375    0.0000 O   0  0  0  0  0  0  0  0  0  0  0  0
    0.0000    0.0000    0.0000 N   0  0  0  0  0  0  0  0  0  0  0  0
    0.0000    0.8250    0.0000 C   0  0  0  0  0  0  0  0  0  0  0  0
   -0.7145    1.2375    0.0000 O   0  0  0  0  0  0  0  0  0  0  0  0
    0.0000    3.3000    0.0000 C   0  0  0  0  0  0  0  0  0  0  0  0
   -0.7145    3.7125    0.0000 O   0  0  0  0  0  0  0  0  0  0  0  0
   -1.4289    2.4750    0.0000 R#  0  0  0  0  0  0  0  0  0  0  0  0
    0.7145    3.7125    0.0000 R#  0  0  0  0  0  0  0  0  0  0  0  0
 14  1  1  0
  2  1  1  0
  2  3  1  6
  3  4  1  0
  4  5  1  0
  5  6  2  0
  6  7  1  0
  7  8  2  0
  7  9  1  0
  9 10  1  0
  4 10  1  0
 10 11  2  0
  2 12  1  0
 12 15  1  0
 12 13  2  0
M  RGP  2  14   1  15   2
V   14 *
V   15 *
M  END
>  <m_name>  (113)
Alpha-amino-2,4-dioxopyrimidinepropanoic acid

>  <symbol>  (113)
Wil

>  <m_abbr>  (113)
Wil

>  <m_type>  (113)
aa

>  <m_subtype>  (113)
non-natural

>  <m_Rgroups>  (113)
H,OH,None,None

>  <m_RgroupIdx>  (113)
13,14,None,None

>  <m_attachmentPointIdx>  (113)
0,11,None,None

>  <natAnalog>  (113)
X

>  <pdbName>  (113)
WIL

$$$$

     RDKit          2D

  5  4  0  0  0  0  0  0  0  0999 V2000
    1.0000   -0.0008    0.0000 C   0  0  0  0  0  0  0  0  0  0  0  0
    0.0000    0.0000    0.0000 S   0  0  0  0  0  0  0  0  0  0  0  0
    0.0008    1.0000    0.0000 O   0  0  0  0  0  0  0  0  0  0  0  0
   -0.0008   -1.0000    0.0000 O   0  0  0  0  0  0  0  0  0  0  0  0
   -1.0000    0.0008    0.0000 R#  0  0  0  0  0  0  0  0  0  0  0  0
  1  2  1  0
  2  3  2  0
  2  4  2  0
  2  5  1  0
M  RGP  1   5   2
V    5 *
M  END
>  <m_name>  (114)
Mesylate

>  <symbol>  (114)
MsO

>  <m_abbr>  (114)
MsO

>  <m_type>  (114)
aa

>  <m_subtype>  (114)
aa

>  <m_Rgroups>  (114)
None,OH,None,None

>  <m_RgroupIdx>  (114)
None,4,None,None

>  <m_attachmentPointIdx>  (114)
None,1,None,None

>  <natAnalog>  (114)
X

>  <pdbName>  (114)
MSV

$$$$

     RDKit          2D

 13 14  0  0  0  0  0  0  0  0999 V2000
    1.1387   -0.0305    0.0000 N   0  0  0  0  0  0  0  0  0  0  0  0
    1.9233   -0.2854    0.0000 C   0  0  0  0  0  0  0  0  0  0  0  0
    2.6378    0.1271    0.0000 C   0  0  0  0  0  0  0  0  0  0  0  0
    3.3523   -0.2854    0.0000 C   0  0  0  0  0  0  0  0  0  0  0  0
    3.3523   -1.1104    0.0000 C   0  0  0  0  0  0  0  0  0  0  0  0
    2.6378   -1.5229    0.0000 C   0  0  0  0  0  0  0  0  0  0  0  0
    1.9233   -1.1104    0.0000 C   0  0  0  0  0  0  0  0  0  0  0  0
    1.1387   -1.3654    0.0000 C   0  0  0  0  0  0  0  0  0  0  0  0
    0.6538   -0.6979    0.0000 C   0  0  0  0  0  0  0  0  0  0  0  0
   -0.1712   -0.6979    0.0000 C   0  0  0  0  0  0  0  0  0  0  0  0
   -0.5837    0.0165    0.0000 O   0  0  0  0  0  0  0  0  0  0  0  0
    0.8838    0.7541    0.0000 R#  0  0  0  0  0  0  0  0  0  0  0  0
   -0.5837   -1.4124    0.0000 R#  0  0  0  0  0  0  0  0  0  0  0  0
 12  1  1  0
  2  1  1  0
  2  3  1  1
  3  4  1  0
  4  5  1  0
  5  6  1  0
  7  6  1  1
  2  7  1  0
  7  8  1  0
  9  8  1  0
  9  1  1  0
  9 10  1  1
 10 13  1  0
 10 11  2  0
M  RGP  2  12   1  13   2
V   12 *
V   13 *
M  END
>  <m_name>  (115)
Perhydroindolic acid

>  <symbol>  (115)
Oic_3aS_7aS

>  <m_abbr>  (115)
Oic_3aS_7aS

>  <m_type>  (115)
aa

>  <m_subtype>  (115)
non-natural

>  <m_Rgroups>  (115)
H,OH,None,None

>  <m_RgroupIdx>  (115)
11,12,None,None

>  <m_attachmentPointIdx>  (115)
0,9,None,None

>  <natAnalog>  (115)
X

>  <pdbName>  (115)
OIB

$$$$

     RDKit          2D

 10 10  0  0  0  0  0  0  0  0999 V2000
    0.7145    1.2375    0.0000 N   0  0  0  0  0  0  0  0  0  0  0  0
    1.4289    0.8250    0.0000 C   0  0  0  0  0  0  0  0  0  0  0  0
    1.4289    0.0000    0.0000 C   0  0  0  0  0  0  0  0  0  0  0  0
    0.7145   -0.4125    0.0000 C   0  0  0  0  0  0  0  0  0  0  0  0
    0.0000    0.0000    0.0000 C   0  0  0  0  0  0  0  0  0  0  0  0
    0.0000    0.8250    0.0000 C   0  0  0  0  0  0  0  0  0  0  0  0
   -0.7145    1.2375    0.0000 C   0  0  0  0  0  0  0  0  0  0  0  0
   -0.7145    2.0625    0.0000 O   0  0  0  0  0  0  0  0  0  0  0  0
    0.7145    2.0625    0.0000 R#  0  0  0  0  0  0  0  0  0  0  0  0
   -1.4289    0.8250    0.0000 R#  0  0  0  0  0  0  0  0  0  0  0  0
  9  1  1  0
  1  2  1  0
  2  3  1  0
  3  4  1  0
  4  5  1  0
  6  5  1  0
  6  1  1  0
  6  7  1  1
  7 10  1  0
  7  8  2  0
M  RGP  2   9   1  10   2
V    9 *
V   10 *
M  END
>  <m_name>  (116)
Pipecolic acid

>  <symbol>  (116)
Pip

>  <m_abbr>  (116)
Pip

>  <m_type>  (116)
aa

>  <m_subtype>  (116)
non-natural

>  <m_Rgroups>  (116)
H,OH,None,None

>  <m_RgroupIdx>  (116)
8,9,None,None

>  <m_attachmentPointIdx>  (116)
0,6,None,None

>  <natAnalog>  (116)
X

>  <pdbName>  (116)
PIJ

$$$$

     RDKit          2D

 13 13  0  0  0  0  0  0  0  0999 V2000
    0.0000    3.3000    0.0000 N   0  0  0  0  0  0  0  0  0  0  0  0
    0.0000    2.4750    0.0000 C   0  0  0  0  0  0  0  0  0  0  0  0
    0.7145    2.0625    0.0000 C   0  0  0  0  0  0  0  0  0  0  0  0
    0.7145    1.2375    0.0000 C   0  0  0  0  0  0  0  0  0  0  0  0
    1.4289    0.8250    0.0000 C   0  0  0  0  0  0  0  0  0  0  0  0
    1.4289    0.0000    0.0000 C   0  0  0  0  0  0  0  0  0  0  0  0
    0.7145   -0.4125    0.0000 C   0  0  0  0  0  0  0  0  0  0  0  0
    0.0000    0.0000    0.0000 N   0  0  0  0  0  0  0  0  0  0  0  0
    0.0000    0.8250    0.0000 C   0  0  0  0  0  0  0  0  0  0  0  0
   -0.7145    2.0625    0.0000 C   0  0  0  0  0  0  0  0  0  0  0  0
   -1.4289    2.4750    0.0000 O   0  0  0  0  0  0  0  0  0  0  0  0
   -0.7145    3.7125    0.0000 R#  0  0  0  0  0  0  0  0  0  0  0  0
   -0.7145    1.2375    0.0000 R#  0  0  0  0  0  0  0  0  0  0  0  0
 12  1  1  0
  2  1  1  0
  2  3  1  1
  3  4  1  0
  4  5  2  0
  5  6  1  0
  6  7  2  0
  7  8  1  0
  8  9  2  0
  4  9  1  0
  2 10  1  0
 10 13  1  0
 10 11  2  0
M  RGP  2  12   1  13   2
V   12 *
V   13 *
M  END
>  <m_name>  (117)
3-(2-pyridyl)-alanine

>  <symbol>  (117)
3Pal

>  <m_abbr>  (117)
3Pal

>  <m_type>  (117)
aa

>  <m_subtype>  (117)
non-natural

>  <m_Rgroups>  (117)
H,OH,None,None

>  <m_RgroupIdx>  (117)
11,12,None,None

>  <m_attachmentPointIdx>  (117)
0,9,None,None

>  <natAnalog>  (117)
X

>  <pdbName>  (117)
3PN

$$$$

     RDKit          2D

 13 13  0  0  0  0  0  0  0  0999 V2000
    0.0000    3.3000    0.0000 N   0  0  0  0  0  0  0  0  0  0  0  0
    0.0000    2.4750    0.0000 C   0  0  0  0  0  0  0  0  0  0  0  0
    0.7145    2.0625    0.0000 C   0  0  0  0  0  0  0  0  0  0  0  0
    0.7145    1.2375    0.0000 C   0  0  0  0  0  0  0  0  0  0  0  0
    1.4289    0.8250    0.0000 C   0  0  0  0  0  0  0  0  0  0  0  0
    1.4289    0.0000    0.0000 C   0  0  0  0  0  0  0  0  0  0  0  0
    0.7145   -0.4125    0.0000 N   0  0  0  0  0  0  0  0  0  0  0  0
    0.0000    0.0000    0.0000 C   0  0  0  0  0  0  0  0  0  0  0  0
    0.0000    0.8250    0.0000 C   0  0  0  0  0  0  0  0  0  0  0  0
   -0.7145    2.0625    0.0000 C   0  0  0  0  0  0  0  0  0  0  0  0
   -1.4289    2.4750    0.0000 O   0  0  0  0  0  0  0  0  0  0  0  0
   -0.7145    3.7125    0.0000 R#  0  0  0  0  0  0  0  0  0  0  0  0
   -0.7145    1.2375    0.0000 R#  0  0  0  0  0  0  0  0  0  0  0  0
 12  1  1  0
  2  1  1  0
  2  3  1  1
  3  4  1  0
  4  5  2  0
  5  6  1  0
  6  7  2  0
  7  8  1  0
  8  9  2  0
  4  9  1  0
  2 10  1  0
 10 13  1  0
 10 11  2  0
M  RGP  2  12   1  13   2
V   12 *
V   13 *
M  END
>  <m_name>  (118)
3-(4-Pyridyl)-alanine

>  <symbol>  (118)
4Pal

>  <m_abbr>  (118)
4Pal

>  <m_type>  (118)
aa

>  <m_subtype>  (118)
non-natural

>  <m_Rgroups>  (118)
H,OH,None,None

>  <m_RgroupIdx>  (118)
11,12,None,None

>  <m_attachmentPointIdx>  (118)
0,9,None,None

>  <natAnalog>  (118)
X

>  <pdbName>  (118)
4PM

$$$$

     RDKit          2D

  8  7  0  0  0  0  0  0  0  0999 V2000
    0.0000   -1.4289    0.0000 C   0  0  0  0  0  0  0  0  0  0  0  0
    0.8250   -1.4289    0.0000 C   0  0  0  0  0  0  0  0  0  0  0  0
    1.2375   -0.7145    0.0000 C   0  0  0  0  0  0  0  0  0  0  0  0
    2.0625   -0.7145    0.0000 N   0  0  0  0  0  0  0  0  0  0  0  0
    0.8250    0.0000    0.0000 C   0  0  0  0  0  0  0  0  0  0  0  0
    0.0000    0.0000    0.0000 O   0  0  0  0  0  0  0  0  0  0  0  0
    2.4750    0.0000    0.0000 R#  0  0  0  0  0  0  0  0  0  0  0  0
    1.2375    0.7145    0.0000 R#  0  0  0  0  0  0  0  0  0  0  0  0
  1  2  1  0
  3  2  1  1
  3  4  1  0
  4  7  1  0
  3  5  1  0
  5  8  1  0
  5  6  2  0
M  RGP  2   7   1   8   2
V    7 *
V    8 *
M  END
>  <m_name>  (119)
2-Aminobutanoic acid

>  <symbol>  (119)
Abu

>  <m_abbr>  (119)
Abu

>  <m_type>  (119)
aa

>  <m_subtype>  (119)
non-natural

>  <m_Rgroups>  (119)
H,OH,None,None

>  <m_RgroupIdx>  (119)
6,7,None,None

>  <m_attachmentPointIdx>  (119)
3,4,None,None

>  <natAnalog>  (119)
X

>  <pdbName>  (119)
ABC

$$$$

     RDKit          2D

 13 12  0  0  0  0  0  0  0  0999 V2000
    5.2882    4.9755    0.0000 N   0  0  0  0  0  0  0  0  0  0  0  0
    4.7481    4.3519    0.0000 C   0  0  0  0  0  0  0  0  0  0  0  0
    3.9379    4.5078    0.0000 C   0  0  0  0  0  0  0  0  0  0  0  0
    3.3979    3.8842    0.0000 C   0  0  0  0  0  0  0  0  0  0  0  0
    2.5877    4.0401    0.0000 C   0  0  0  0  0  0  0  0  0  0  0  0
    2.0476    3.4164    0.0000 C   0  0  0  0  0  0  0  0  0  0  0  0
    1.2375    3.5724    0.0000 C   0  0  0  0  0  0  0  0  0  0  0  0
    0.9675    4.3519    0.0000 O   0  0  0  0  0  0  0  0  0  0  0  0
    5.0181    3.5724    0.0000 C   0  0  0  0  0  0  0  0  0  0  0  0
    4.4780    2.9487    0.0000 O   0  0  0  0  0  0  0  0  0  0  0  0
    6.0983    4.8196    0.0000 R#  0  0  0  0  0  0  0  0  0  0  0  0
    0.6974    2.9487    0.0000 R#  0  0  0  0  0  0  0  0  0  0  0  0
    5.8283    3.4164    0.0000 R#  0  0  0  0  0  0  0  0  0  0  0  0
 11  1  1  0
  2  1  1  0
  2  3  1  6
  3  4  1  0
  4  5  1  0
  5  6  1  0
  6  7  1  0
  7 12  1  0
  7  8  2  0
  2  9  1  0
  9 13  1  0
  9 10  2  0
M  RGP  3  11   1  12   3  13   2
V   11 *
V   12 *
V   13 *
M  END
>  <m_name>  (120)
2-Aminopimelic acid

>  <symbol>  (120)
Apm

>  <m_abbr>  (120)
Apm

>  <m_type>  (120)
aa

>  <m_subtype>  (120)
non-natural

>  <m_Rgroups>  (120)
H,OH,OH,None

>  <m_RgroupIdx>  (120)
10,12,11,None

>  <m_attachmentPointIdx>  (120)
0,8,6,None

>  <natAnalog>  (120)
X

>  <pdbName>  (120)
AAW

$$$$

     RDKit          2D

 12 12  0  0  0  0  0  0  0  0999 V2000
    0.0000    2.4750    0.0000 N   0  0  0  0  0  0  0  0  0  0  0  0
    0.7145    2.0625    0.0000 C   0  0  0  0  0  0  0  0  0  0  0  0
    0.7145    1.2375    0.0000 C   0  0  0  0  0  0  0  0  0  0  0  0
    1.4289    0.8250    0.0000 C   0  0  0  0  0  0  0  0  0  0  0  0
    1.4289    0.0000    0.0000 C   0  0  0  0  0  0  0  0  0  0  0  0
    0.7145   -0.4125    0.0000 C   0  0  0  0  0  0  0  0  0  0  0  0
    0.0000    0.0000    0.0000 C   0  0  0  0  0  0  0  0  0  0  0  0
    0.0000    0.8250    0.0000 C   0  0  0  0  0  0  0  0  0  0  0  0
    1.4289    2.4750    0.0000 C   0  0  0  0  0  0  0  0  0  0  0  0
    1.4289    3.3000    0.0000 O   0  0  0  0  0  0  0  0  0  0  0  0
    0.0000    3.3000    0.0000 R#  0  0  0  0  0  0  0  0  0  0  0  0
    2.1434    2.0625    0.0000 R#  0  0  0  0  0  0  0  0  0  0  0  0
 11  1  1  0
  2  1  1  6
  2  3  1  0
  3  4  1  0
  4  5  1  0
  5  6  1  0
  6  7  1  0
  7  8  1  0
  3  8  1  0
  2  9  1  0
  9 12  1  0
  9 10  2  0
M  RGP  2  11   1  12   2
V   11 *
V   12 *
M  END
>  <m_name>  (121)
Alpha-cyclohexylglycine

>  <symbol>  (121)
Chg

>  <m_abbr>  (121)
Chg

>  <m_type>  (121)
aa

>  <m_subtype>  (121)
non-natural

>  <m_Rgroups>  (121)
H,OH,None,None

>  <m_RgroupIdx>  (121)
10,11,None,None

>  <m_attachmentPointIdx>  (121)
0,8,None,None

>  <natAnalog>  (121)
X

>  <pdbName>  (121)
CHY

$$$$

     RDKit          2D

 10  9  0  0  0  0  0  0  0  0999 V2000
    3.7125    3.5724    0.0000 N   0  0  0  0  0  0  0  0  0  0  0  0
    3.3000    2.8579    0.0000 C   0  0  0  0  0  0  0  0  0  0  0  0
    2.4750    2.8579    0.0000 C   0  0  0  0  0  0  0  0  0  0  0  0
    2.0625    2.1434    0.0000 C   0  0  0  0  0  0  0  0  0  0  0  0
    1.2375    2.1434    0.0000 N   0  0  0  0  0  0  0  0  0  0  0  0
    3.7125    2.1434    0.0000 C   0  0  0  0  0  0  0  0  0  0  0  0
    3.3000    1.4289    0.0000 O   0  0  0  0  0  0  0  0  0  0  0  0
    4.5375    3.5724    0.0000 R#  0  0  0  0  0  0  0  0  0  0  0  0
    0.8250    1.4289    0.0000 R#  0  0  0  0  0  0  0  0  0  0  0  0
    4.5375    2.1434    0.0000 R#  0  0  0  0  0  0  0  0  0  0  0  0
  8  1  1  0
  2  1  1  0
  2  3  1  6
  3  4  1  0
  4  5  1  0
  5  9  1  0
  2  6  1  0
  6 10  1  0
  6  7  2  0
M  RGP  3   8   1   9   3  10   2
V    8 *
V    9 *
V   10 *
M  END
>  <m_name>  (122)
2,4-diaminobutanoic acid

>  <symbol>  (122)
Dab

>  <m_abbr>  (122)
Dab

>  <m_type>  (122)
aa

>  <m_subtype>  (122)
non-natural

>  <m_Rgroups>  (122)
H,OH,H,None

>  <m_RgroupIdx>  (122)
7,9,8,None

>  <m_attachmentPointIdx>  (122)
0,5,4,None

>  <natAnalog>  (122)
X

>  <pdbName>  (122)
DQE

$$$$

     RDKit          2D

  9  8  0  0  0  0  0  0  0  0999 V2000
    1.9520   -1.9520    0.0000 N   0  0  0  0  0  0  0  0  0  0  0  0
    1.9520   -1.1270    0.0000 C   0  0  0  0  0  0  0  0  0  0  0  0
    1.2375   -0.7145    0.0000 C   0  0  0  0  0  0  0  0  0  0  0  0
    1.2375    0.1105    0.0000 N   0  0  0  0  0  0  0  0  0  0  0  0
    2.6664   -0.7145    0.0000 C   0  0  0  0  0  0  0  0  0  0  0  0
    3.3809   -1.1270    0.0000 O   0  0  0  0  0  0  0  0  0  0  0  0
    2.6664   -2.3645    0.0000 R#  0  0  0  0  0  0  0  0  0  0  0  0
    0.5230    0.5230    0.0000 R#  0  0  0  0  0  0  0  0  0  0  0  0
    2.6664    0.1105    0.0000 R#  0  0  0  0  0  0  0  0  0  0  0  0
  7  1  1  0
  2  1  1  0
  2  3  1  1
  3  4  1  0
  4  8  1  0
  2  5  1  0
  5  9  1  0
  5  6  2  0
M  RGP  3   7   1   8   3   9   2
V    7 *
V    8 *
V    9 *
M  END
>  <m_name>  (123)
2,3-diaminopropanoic acid

>  <symbol>  (123)
Dap

>  <m_abbr>  (123)
Dap

>  <m_type>  (123)
aa

>  <m_subtype>  (123)
non-natural

>  <m_Rgroups>  (123)
H,OH,H,None

>  <m_RgroupIdx>  (123)
6,8,7,None

>  <m_attachmentPointIdx>  (123)
0,4,3,None

>  <natAnalog>  (123)
X

>  <pdbName>  (123)
DQI

$$$$

     RDKit          2D

 13 13  0  0  0  0  0  0  0  0999 V2000
    0.0000    3.3000    0.0000 N   0  0  0  0  0  0  0  0  0  0  0  0
    0.0000    2.4750    0.0000 C   0  0  0  0  0  0  0  0  0  0  0  0
    0.7145    2.0625    0.0000 C   0  0  0  0  0  0  0  0  0  0  0  0
    0.7145    1.2375    0.0000 C   0  0  0  0  0  0  0  0  0  0  0  0
    1.4289    0.8250    0.0000 C   0  0  0  0  0  0  0  0  0  0  0  0
    1.4289    0.0000    0.0000 C   0  0  0  0  0  0  0  0  0  0  0  0
    0.7145   -0.4125    0.0000 C   0  0  0  0  0  0  0  0  0  0  0  0
    0.0000    0.0000    0.0000 N   0  0  0  0  0  0  0  0  0  0  0  0
    0.0000    0.8250    0.0000 C   0  0  0  0  0  0  0  0  0  0  0  0
   -0.7145    2.0625    0.0000 C   0  0  0  0  0  0  0  0  0  0  0  0
   -1.4289    2.4750    0.0000 O   0  0  0  0  0  0  0  0  0  0  0  0
   -0.7145    3.7125    0.0000 R#  0  0  0  0  0  0  0  0  0  0  0  0
   -0.7145    1.2375    0.0000 R#  0  0  0  0  0  0  0  0  0  0  0  0
 12  1  1  0
  2  1  1  0
  2  3  1  6
  3  4  1  0
  4  5  2  0
  5  6  1  0
  6  7  2  0
  7  8  1  0
  8  9  2  0
  4  9  1  0
  2 10  1  0
 10 13  1  0
 10 11  2  0
M  RGP  2  12   1  13   2
V   12 *
V   13 *
M  END
>  <m_name>  (124)
D-3-(2-pyridyl)-alanine

>  <symbol>  (124)
D_3Pal

>  <m_abbr>  (124)
D_3Pal

>  <m_type>  (124)
aa

>  <m_subtype>  (124)
non-natural

>  <m_Rgroups>  (124)
H,OH,None,None

>  <m_RgroupIdx>  (124)
11,12,None,None

>  <m_attachmentPointIdx>  (124)
0,9,None,None

>  <natAnalog>  (124)
X

>  <pdbName>  (124)
D3I

$$$$

     RDKit          2D

  9  8  0  0  0  0  0  0  0  0999 V2000
    0.5230   -1.9520    0.0000 C   0  0  0  0  0  0  0  0  0  0  0  0
    0.5230   -1.1270    0.0000 C   0  0  0  0  0  0  0  0  0  0  0  0
    1.2375   -0.7145    0.0000 C   0  0  0  0  0  0  0  0  0  0  0  0
    1.6500   -1.4289    0.0000 C   0  0  0  0  0  0  0  0  0  0  0  0
    1.9520   -0.3020    0.0000 N   0  0  0  0  0  0  0  0  0  0  0  0
    0.8250    0.0000    0.0000 C   0  0  0  0  0  0  0  0  0  0  0  0
    0.0000    0.0000    0.0000 O   0  0  0  0  0  0  0  0  0  0  0  0
    1.9520    0.5230    0.0000 R#  0  0  0  0  0  0  0  0  0  0  0  0
    1.2375    0.7145    0.0000 R#  0  0  0  0  0  0  0  0  0  0  0  0
  1  2  1  0
  3  2  1  0
  3  4  1  1
  3  5  1  0
  5  8  1  0
  3  6  1  0
  6  9  1  0
  6  7  2  0
M  RGP  2   8   1   9   2
V    8 *
V    9 *
M  END
>  <m_name>  (125)
D-Isovaline

>  <symbol>  (125)
D_aMeAbu

>  <m_abbr>  (125)
D_aMeAbu

>  <m_type>  (125)
aa

>  <m_subtype>  (125)
non-natural

>  <m_Rgroups>  (125)
H,OH,None,None

>  <m_RgroupIdx>  (125)
7,8,None,None

>  <m_attachmentPointIdx>  (125)
4,5,None,None

>  <natAnalog>  (125)
X

>  <pdbName>  (125)
DQ4

$$$$

     RDKit          2D

 12 12  0  0  0  0  0  0  0  0999 V2000
    0.0000    2.4750    0.0000 N   0  0  0  0  0  0  0  0  0  0  0  0
    0.7145    2.0625    0.0000 C   0  0  0  0  0  0  0  0  0  0  0  0
    0.7145    1.2375    0.0000 C   0  0  0  0  0  0  0  0  0  0  0  0
    1.4289    0.8250    0.0000 C   0  0  0  0  0  0  0  0  0  0  0  0
    1.4289    0.0000    0.0000 C   0  0  0  0  0  0  0  0  0  0  0  0
    0.7145   -0.4125    0.0000 C   0  0  0  0  0  0  0  0  0  0  0  0
    0.0000    0.0000    0.0000 C   0  0  0  0  0  0  0  0  0  0  0  0
    0.0000    0.8250    0.0000 C   0  0  0  0  0  0  0  0  0  0  0  0
    1.4289    2.4750    0.0000 C   0  0  0  0  0  0  0  0  0  0  0  0
    1.4289    3.3000    0.0000 O   0  0  0  0  0  0  0  0  0  0  0  0
    0.0000    3.3000    0.0000 R#  0  0  0  0  0  0  0  0  0  0  0  0
    2.1434    2.0625    0.0000 R#  0  0  0  0  0  0  0  0  0  0  0  0
 11  1  1  0
  2  1  1  1
  2  3  1  0
  3  4  1  0
  4  5  1  0
  5  6  1  0
  6  7  1  0
  7  8  1  0
  3  8  1  0
  2  9  1  0
  9 12  1  0
  9 10  2  0
M  RGP  2  11   1  12   2
V   11 *
V   12 *
M  END
>  <m_name>  (126)
D-Alpha-cyclohexylglycine

>  <symbol>  (126)
D_Chg

>  <m_abbr>  (126)
D_Chg

>  <m_type>  (126)
aa

>  <m_subtype>  (126)
non-natural

>  <m_Rgroups>  (126)
H,OH,None,None

>  <m_RgroupIdx>  (126)
10,11,None,None

>  <m_attachmentPointIdx>  (126)
0,8,None,None

>  <natAnalog>  (126)
X

>  <pdbName>  (126)
DUF

$$$$

     RDKit          2D

 13 12  0  0  0  0  0  0  0  0999 V2000
    0.6974   -2.9487    0.0000 N   0  0  0  0  0  0  0  0  0  0  0  0
    1.2375   -3.5724    0.0000 C   0  0  0  0  0  0  0  0  0  0  0  0
    0.9675   -4.3519    0.0000 O   0  0  0  0  0  0  0  0  0  0  0  0
    2.0476   -3.4164    0.0000 N   0  0  0  0  0  0  0  0  0  0  0  0
    2.5877   -4.0401    0.0000 C   0  0  0  0  0  0  0  0  0  0  0  0
    3.3979   -3.8842    0.0000 C   0  0  0  0  0  0  0  0  0  0  0  0
    3.9379   -4.5078    0.0000 C   0  0  0  0  0  0  0  0  0  0  0  0
    4.7481   -4.3519    0.0000 C   0  0  0  0  0  0  0  0  0  0  0  0
    5.2882   -4.9755    0.0000 N   0  0  0  0  0  0  0  0  0  0  0  0
    5.0181   -3.5724    0.0000 C   0  0  0  0  0  0  0  0  0  0  0  0
    5.8283   -3.4164    0.0000 O   0  0  0  0  0  0  0  0  0  0  0  0
    6.0983   -4.8196    0.0000 R#  0  0  0  0  0  0  0  0  0  0  0  0
    4.4780   -2.9487    0.0000 R#  0  0  0  0  0  0  0  0  0  0  0  0
  1  2  1  0
  2  3  2  0
  2  4  1  0
  4  5  1  0
  5  6  1  0
  6  7  1  0
  8  7  1  6
  8  9  1  0
  9 12  1  0
  8 10  1  0
 10 13  1  0
 10 11  2  0
M  RGP  2  12   1  13   2
V   12 *
V   13 *
M  END
>  <m_name>  (127)
D-Citrullin

>  <symbol>  (127)
D_Cit

>  <m_abbr>  (127)
D_Cit

>  <m_type>  (127)
aa

>  <m_subtype>  (127)
non-natural

>  <m_Rgroups>  (127)
H,OH,None,None

>  <m_RgroupIdx>  (127)
11,12,None,None

>  <m_attachmentPointIdx>  (127)
8,9,None,None

>  <natAnalog>  (127)
X

>  <pdbName>  (127)
DUI

$$$$

     RDKit          2D

 10  9  0  0  0  0  0  0  0  0999 V2000
    3.7125    3.5724    0.0000 N   0  0  0  0  0  0  0  0  0  0  0  0
    3.3000    2.8579    0.0000 C   0  0  0  0  0  0  0  0  0  0  0  0
    2.4750    2.8579    0.0000 C   0  0  0  0  0  0  0  0  0  0  0  0
    2.0625    2.1434    0.0000 C   0  0  0  0  0  0  0  0  0  0  0  0
    1.2375    2.1434    0.0000 N   0  0  0  0  0  0  0  0  0  0  0  0
    3.7125    2.1434    0.0000 C   0  0  0  0  0  0  0  0  0  0  0  0
    3.3000    1.4289    0.0000 O   0  0  0  0  0  0  0  0  0  0  0  0
    4.5375    3.5724    0.0000 R#  0  0  0  0  0  0  0  0  0  0  0  0
    0.8250    1.4289    0.0000 R#  0  0  0  0  0  0  0  0  0  0  0  0
    4.5375    2.1434    0.0000 R#  0  0  0  0  0  0  0  0  0  0  0  0
  8  1  1  0
  2  1  1  0
  2  3  1  1
  3  4  1  0
  4  5  1  0
  5  9  1  0
  2  6  1  0
  6 10  1  0
  6  7  2  0
M  RGP  3   8   1   9   3  10   2
V    8 *
V    9 *
V   10 *
M  END
>  <m_name>  (128)
D-2,4-diaminobutanoic acid

>  <symbol>  (128)
D_Dab

>  <m_abbr>  (128)
D_Dab

>  <m_type>  (128)
aa

>  <m_subtype>  (128)
non-natural

>  <m_Rgroups>  (128)
H,OH,H,None

>  <m_RgroupIdx>  (128)
7,9,8,None

>  <m_attachmentPointIdx>  (128)
0,5,4,None

>  <natAnalog>  (128)
X

>  <pdbName>  (128)
DUJ

$$$$

     RDKit          2D

 10 10  0  0  0  0  0  0  0  0999 V2000
    0.7145    1.2375    0.0000 N   0  0  0  0  0  0  0  0  0  0  0  0
    1.4289    0.8250    0.0000 C   0  0  0  0  0  0  0  0  0  0  0  0
    1.4289    0.0000    0.0000 C   0  0  0  0  0  0  0  0  0  0  0  0
    0.7145   -0.4125    0.0000 C   0  0  0  0  0  0  0  0  0  0  0  0
    0.0000    0.0000    0.0000 C   0  0  0  0  0  0  0  0  0  0  0  0
    0.0000    0.8250    0.0000 C   0  0  0  0  0  0  0  0  0  0  0  0
   -0.7145    1.2375    0.0000 C   0  0  0  0  0  0  0  0  0  0  0  0
   -0.7145    2.0625    0.0000 O   0  0  0  0  0  0  0  0  0  0  0  0
    0.7145    2.0625    0.0000 R#  0  0  0  0  0  0  0  0  0  0  0  0
   -1.4289    0.8250    0.0000 R#  0  0  0  0  0  0  0  0  0  0  0  0
  9  1  1  0
  1  2  1  0
  2  3  1  0
  3  4  1  0
  4  5  1  0
  6  5  1  0
  6  1  1  0
  6  7  1  6
  7 10  1  0
  7  8  2  0
M  RGP  2   9   1  10   2
V    9 *
V   10 *
M  END
>  <m_name>  (129)
D-Pipecolic acid

>  <symbol>  (129)
D_Pip

>  <m_abbr>  (129)
D_Pip

>  <m_type>  (129)
aa

>  <m_subtype>  (129)
non-natural

>  <m_Rgroups>  (129)
H,OH,None,None

>  <m_RgroupIdx>  (129)
8,9,None,None

>  <m_attachmentPointIdx>  (129)
0,6,None,None

>  <natAnalog>  (129)
X

>  <pdbName>  (129)
DUM

$$$$

     RDKit          2D

 14 15  0  0  0  0  0  0  0  0999 V2000
    0.7145   -0.4125    0.0000 N   0  0  0  0  0  0  0  0  0  0  0  0
    1.4289    0.0000    0.0000 C   0  0  0  0  0  0  0  0  0  0  0  0
    2.1434   -0.4125    0.0000 C   0  0  0  0  0  0  0  0  0  0  0  0
    2.8579    0.0000    0.0000 C   0  0  0  0  0  0  0  0  0  0  0  0
    3.5724   -0.4125    0.0000 C   0  0  0  0  0  0  0  0  0  0  0  0
    3.5724   -1.2375    0.0000 C   0  0  0  0  0  0  0  0  0  0  0  0
    2.8579   -1.6500    0.0000 C   0  0  0  0  0  0  0  0  0  0  0  0
    2.1434   -1.2375    0.0000 C   0  0  0  0  0  0  0  0  0  0  0  0
    1.4289   -1.6500    0.0000 C   0  0  0  0  0  0  0  0  0  0  0  0
    0.7145   -1.2375    0.0000 C   0  0  0  0  0  0  0  0  0  0  0  0
    0.0000   -1.6500    0.0000 C   0  0  0  0  0  0  0  0  0  0  0  0
   -0.7145   -1.2375    0.0000 O   0  0  0  0  0  0  0  0  0  0  0  0
    0.0000    0.0000    0.0000 R#  0  0  0  0  0  0  0  0  0  0  0  0
    0.0000   -2.4750    0.0000 R#  0  0  0  0  0  0  0  0  0  0  0  0
 13  1  1  0
  1  2  1  0
  2  3  1  0
  3  4  2  0
  4  5  1  0
  5  6  2  0
  6  7  1  0
  7  8  2  0
  3  8  1  0
  8  9  1  0
 10  9  1  0
 10  1  1  0
 10 11  1  6
 11 14  1  0
 11 12  2  0
M  RGP  2  13   1  14   2
V   13 *
V   14 *
M  END
>  <m_name>  (130)
D-1,2,3,4-tetrahydro-3-isoquinolinecarboxylic acid

>  <symbol>  (130)
D_Tic

>  <m_abbr>  (130)
D_Tic

>  <m_type>  (130)
aa

>  <m_subtype>  (130)
non-natural

>  <m_Rgroups>  (130)
H,OH,None,None

>  <m_RgroupIdx>  (130)
12,13,None,None

>  <m_attachmentPointIdx>  (130)
0,10,None,None

>  <natAnalog>  (130)
X

>  <pdbName>  (130)
DVF

$$$$

     RDKit          2D

 14 13  0  0  0  0  0  0  0  0999 V2000
    0.6430   -4.4293    0.0000 C   0  0  0  0  0  0  0  0  0  0  0  0
    1.2375   -5.0013    0.0000 C   0  0  0  0  0  0  0  0  0  0  0  0
    2.0301   -4.7725    0.0000 C   0  0  0  0  0  0  0  0  0  0  0  0
    2.6246   -5.3445    0.0000 C   0  0  0  0  0  0  0  0  0  0  0  0
    3.4172   -5.1157    0.0000 C   0  0  0  0  0  0  0  0  0  0  0  0
    4.0117   -5.6877    0.0000 C   0  0  0  0  0  0  0  0  0  0  0  0
    4.8044   -5.4589    0.0000 C   0  0  0  0  0  0  0  0  0  0  0  0
    5.3988   -6.0310    0.0000 C   0  0  0  0  0  0  0  0  0  0  0  0
    6.1915   -5.8021    0.0000 C   0  0  0  0  0  0  0  0  0  0  0  0
    6.7859   -6.3742    0.0000 N   0  0  0  0  0  0  0  0  0  0  0  0
    6.3896   -5.0013    0.0000 C   0  0  0  0  0  0  0  0  0  0  0  0
    7.1823   -4.7725    0.0000 O   0  0  0  0  0  0  0  0  0  0  0  0
    7.5786   -6.1454    0.0000 R#  0  0  0  0  0  0  0  0  0  0  0  0
    5.7951   -4.4293    0.0000 R#  0  0  0  0  0  0  0  0  0  0  0  0
  1  2  1  0
  2  3  1  0
  3  4  1  0
  4  5  1  0
  5  6  1  0
  6  7  1  0
  7  8  1  0
  9  8  1  1
  9 10  1  0
 10 13  1  0
  9 11  1  0
 11 14  1  0
 11 12  2  0
M  RGP  2  13   1  14   2
V   13 *
V   14 *
M  END
>  <m_name>  (131)
2-Aminocapric acid

>  <symbol>  (131)
Aca

>  <m_abbr>  (131)
Aca

>  <m_type>  (131)
aa

>  <m_subtype>  (131)
non-natural

>  <m_Rgroups>  (131)
H,OH,None,None

>  <m_RgroupIdx>  (131)
12,13,None,None

>  <m_attachmentPointIdx>  (131)
9,10,None,None

>  <natAnalog>  (131)
X

>  <pdbName>  (131)
AC3

$$$$

     RDKit          2D

 14 15  0  0  0  0  0  0  0  0999 V2000
    0.7145   -0.4125    0.0000 N   0  0  0  0  0  0  0  0  0  0  0  0
    1.4289    0.0000    0.0000 C   0  0  0  0  0  0  0  0  0  0  0  0
    2.1434   -0.4125    0.0000 C   0  0  0  0  0  0  0  0  0  0  0  0
    2.8579    0.0000    0.0000 C   0  0  0  0  0  0  0  0  0  0  0  0
    3.5724   -0.4125    0.0000 C   0  0  0  0  0  0  0  0  0  0  0  0
    3.5724   -1.2375    0.0000 C   0  0  0  0  0  0  0  0  0  0  0  0
    2.8579   -1.6500    0.0000 C   0  0  0  0  0  0  0  0  0  0  0  0
    2.1434   -1.2375    0.0000 C   0  0  0  0  0  0  0  0  0  0  0  0
    1.4289   -1.6500    0.0000 C   0  0  0  0  0  0  0  0  0  0  0  0
    0.7145   -1.2375    0.0000 C   0  0  0  0  0  0  0  0  0  0  0  0
    0.0000   -1.6500    0.0000 C   0  0  0  0  0  0  0  0  0  0  0  0
   -0.7145   -1.2375    0.0000 O   0  0  0  0  0  0  0  0  0  0  0  0
    0.0000    0.0000    0.0000 R#  0  0  0  0  0  0  0  0  0  0  0  0
    0.0000   -2.4750    0.0000 R#  0  0  0  0  0  0  0  0  0  0  0  0
 13  1  1  0
  1  2  1  0
  2  3  1  0
  3  4  2  0
  4  5  1  0
  5  6  2  0
  6  7  1  0
  7  8  2  0
  3  8  1  0
  8  9  1  0
 10  9  1  0
 10  1  1  0
 10 11  1  1
 11 14  1  0
 11 12  2  0
M  RGP  2  13   1  14   2
V   13 *
V   14 *
M  END
>  <m_name>  (132)
1,2,3,4-tetrahydro-3-isoquinolinecarboxylic acid

>  <symbol>  (132)
Tic

>  <m_abbr>  (132)
Tic

>  <m_type>  (132)
aa

>  <m_subtype>  (132)
non-natural

>  <m_Rgroups>  (132)
H,OH,None,None

>  <m_RgroupIdx>  (132)
12,13,None,None

>  <m_attachmentPointIdx>  (132)
0,10,None,None

>  <natAnalog>  (132)
X

>  <pdbName>  (132)
TIE

$$$$

     RDKit          2D

 12 11  0  0  0  0  0  0  0  0999 V2000
    3.7125   -3.5724    0.0000 N   0  0  0  0  0  0  0  0  0  0  0  0
    3.3000   -2.8579    0.0000 C   0  0  0  0  0  0  0  0  0  0  0  0
    2.4750   -2.8579    0.0000 C   0  0  0  0  0  0  0  0  0  0  0  0
    2.0625   -2.1434    0.0000 C   0  0  0  0  0  0  0  0  0  0  0  0
    1.2375   -2.1434    0.0000 C   0  0  0  0  0  0  0  0  0  0  0  0
    0.8250   -1.4289    0.0000 C   0  0  0  0  0  0  0  0  0  0  0  0
    1.2375   -0.7145    0.0000 O   0  0  0  0  0  0  0  0  0  0  0  0
    3.7125   -2.1434    0.0000 C   0  0  0  0  0  0  0  0  0  0  0  0
    4.5375   -2.1434    0.0000 O   0  0  0  0  0  0  0  0  0  0  0  0
    4.5375   -3.5724    0.0000 R#  0  0  0  0  0  0  0  0  0  0  0  0
    0.0000   -1.4289    0.0000 R#  0  0  0  0  0  0  0  0  0  0  0  0
    3.3000   -1.4289    0.0000 R#  0  0  0  0  0  0  0  0  0  0  0  0
 10  1  1  0
  2  1  1  0
  2  3  1  1
  3  4  1  0
  4  5  1  0
  5  6  1  0
  6 11  1  0
  6  7  2  0
  2  8  1  0
  8 12  1  0
  8  9  2  0
M  RGP  3  10   1  11   3  12   2
V   10 *
V   11 *
V   12 *
M  END
>  <m_name>  (133)
2-Aminoadipic acid

>  <symbol>  (133)
Aad

>  <m_abbr>  (133)
Aad

>  <m_type>  (133)
aa

>  <m_subtype>  (133)
non-natural

>  <m_Rgroups>  (133)
H,OH,OH,None

>  <m_RgroupIdx>  (133)
9,11,10,None

>  <m_attachmentPointIdx>  (133)
0,7,5,None

>  <natAnalog>  (133)
X

>  <pdbName>  (133)
AD0

$$$$

     RDKit          2D

 13 12  0  0  0  0  0  0  0  0999 V2000
    0.6974   -2.9487    0.0000 N   0  0  0  0  0  0  0  0  0  0  0  0
    1.2375   -3.5724    0.0000 C   0  0  0  0  0  0  0  0  0  0  0  0
    0.9675   -4.3519    0.0000 O   0  0  0  0  0  0  0  0  0  0  0  0
    2.0476   -3.4164    0.0000 N   0  0  0  0  0  0  0  0  0  0  0  0
    2.5877   -4.0401    0.0000 C   0  0  0  0  0  0  0  0  0  0  0  0
    3.3979   -3.8842    0.0000 C   0  0  0  0  0  0  0  0  0  0  0  0
    3.9379   -4.5078    0.0000 C   0  0  0  0  0  0  0  0  0  0  0  0
    4.7481   -4.3519    0.0000 C   0  0  0  0  0  0  0  0  0  0  0  0
    5.2882   -4.9755    0.0000 N   0  0  0  0  0  0  0  0  0  0  0  0
    5.0181   -3.5724    0.0000 C   0  0  0  0  0  0  0  0  0  0  0  0
    5.8283   -3.4164    0.0000 O   0  0  0  0  0  0  0  0  0  0  0  0
    6.0983   -4.8196    0.0000 R#  0  0  0  0  0  0  0  0  0  0  0  0
    4.4780   -2.9487    0.0000 R#  0  0  0  0  0  0  0  0  0  0  0  0
  1  2  1  0
  2  3  2  0
  2  4  1  0
  4  5  1  0
  5  6  1  0
  6  7  1  0
  8  7  1  1
  8  9  1  0
  9 12  1  0
  8 10  1  0
 10 13  1  0
 10 11  2  0
M  RGP  2  12   1  13   2
V   12 *
V   13 *
M  END
>  <m_name>  (134)
Citrullin

>  <symbol>  (134)
Cit

>  <m_abbr>  (134)
Cit

>  <m_type>  (134)
aa

>  <m_subtype>  (134)
non-natural

>  <m_Rgroups>  (134)
H,OH,None,None

>  <m_RgroupIdx>  (134)
11,12,None,None

>  <m_attachmentPointIdx>  (134)
8,9,None,None

>  <natAnalog>  (134)
X

>  <pdbName>  (134)
CIF

$$$$

     RDKit          2D

  8  8  0  0  0  0  0  0  0  0999 V2000
    0.4125    0.9959    0.0000 N   0  0  0  0  0  0  0  0  0  0  0  0
    0.9959    0.4125    0.0000 C   0  0  0  0  0  0  0  0  0  0  0  0
    0.4125   -0.1709    0.0000 C   0  0  0  0  0  0  0  0  0  0  0  0
   -0.1709    0.4125    0.0000 C   0  0  0  0  0  0  0  0  0  0  0  0
   -0.9959    0.4125    0.0000 C   0  0  0  0  0  0  0  0  0  0  0  0
   -1.4084    1.1270    0.0000 O   0  0  0  0  0  0  0  0  0  0  0  0
    0.4125    1.8209    0.0000 R#  0  0  0  0  0  0  0  0  0  0  0  0
   -1.4084   -0.3020    0.0000 R#  0  0  0  0  0  0  0  0  0  0  0  0
  7  1  1  0
  1  2  1  0
  2  3  1  0
  4  3  1  0
  4  1  1  0
  4  5  1  1
  5  8  1  0
  5  6  2  0
M  RGP  2   7   1   8   2
V    7 *
V    8 *
M  END
>  <m_name>  (135)
2-Carboxyazetidine

>  <symbol>  (135)
Aze

>  <m_abbr>  (135)
Aze

>  <m_type>  (135)
aa

>  <m_subtype>  (135)
non-natural

>  <m_Rgroups>  (135)
H,OH,None,None

>  <m_RgroupIdx>  (135)
6,7,None,None

>  <m_attachmentPointIdx>  (135)
0,4,None,None

>  <natAnalog>  (135)
X

>  <pdbName>  (135)
AEB

$$$$

     RDKit          2D

 10 10  0  0  0  0  0  0  0  0999 V2000
    0.0157    1.7274    0.0000 N   0  0  0  0  0  0  0  0  0  0  0  0
    0.5678    1.1143    0.0000 C   0  0  0  0  0  0  0  0  0  0  0  0
    1.2352    0.6294    0.0000 C   0  0  0  0  0  0  0  0  0  0  0  0
    0.9803   -0.1553    0.0000 C   0  0  0  0  0  0  0  0  0  0  0  0
    0.1553   -0.1553    0.0000 C   0  0  0  0  0  0  0  0  0  0  0  0
   -0.0997    0.6294    0.0000 C   0  0  0  0  0  0  0  0  0  0  0  0
    1.1198    1.7274    0.0000 C   0  0  0  0  0  0  0  0  0  0  0  0
    0.8649    2.5120    0.0000 O   0  0  0  0  0  0  0  0  0  0  0  0
    0.2707    2.5120    0.0000 R#  0  0  0  0  0  0  0  0  0  0  0  0
    1.9268    1.5559    0.0000 R#  0  0  0  0  0  0  0  0  0  0  0  0
  9  1  1  0
  1  2  1  0
  2  3  1  0
  3  4  1  0
  4  5  1  0
  5  6  1  0
  2  6  1  0
  2  7  1  0
  7 10  1  0
  7  8  2  0
M  RGP  2   9   1  10   2
V    9 *
V   10 *
M  END
>  <m_name>  (136)
1-Amino-1-carboxycyclopentane

>  <symbol>  (136)
Ac5c

>  <m_abbr>  (136)
Ac5c

>  <m_type>  (136)
aa

>  <m_subtype>  (136)
non-natural

>  <m_Rgroups>  (136)
H,OH,None,None

>  <m_RgroupIdx>  (136)
8,9,None,None

>  <m_attachmentPointIdx>  (136)
0,6,None,None

>  <natAnalog>  (136)
X

>  <pdbName>  (136)
AEC

$$$$

     RDKit          2D

  8  7  0  0  0  0  0  0  0  0999 V2000
    0.5230    1.1270    0.0000 C   0  0  0  0  0  0  0  0  0  0  0  0
    1.2375    0.7145    0.0000 C   0  0  0  0  0  0  0  0  0  0  0  0
    1.9520    0.3020    0.0000 C   0  0  0  0  0  0  0  0  0  0  0  0
    1.6500    1.4289    0.0000 N   0  0  0  0  0  0  0  0  0  0  0  0
    0.8250    0.0000    0.0000 C   0  0  0  0  0  0  0  0  0  0  0  0
    0.0000    0.0000    0.0000 O   0  0  0  0  0  0  0  0  0  0  0  0
    1.2375    2.1434    0.0000 R#  0  0  0  0  0  0  0  0  0  0  0  0
    1.2375   -0.7145    0.0000 R#  0  0  0  0  0  0  0  0  0  0  0  0
  1  2  1  0
  2  3  1  0
  2  4  1  0
  4  7  1  0
  2  5  1  0
  5  8  1  0
  5  6  2  0
M  RGP  2   7   1   8   2
V    7 *
V    8 *
M  END
>  <m_name>  (137)
Alpha-aminoisobutyric acid (2-aminoalanine)

>  <symbol>  (137)
Aib

>  <m_abbr>  (137)
Aib

>  <m_type>  (137)
aa

>  <m_subtype>  (137)
non-natural

>  <m_Rgroups>  (137)
H,OH,None,None

>  <m_RgroupIdx>  (137)
6,7,None,None

>  <m_attachmentPointIdx>  (137)
3,4,None,None

>  <natAnalog>  (137)
X

>  <pdbName>  (137)
AIB

$$$$

     RDKit          2D

 13 13  0  0  0  0  0  0  0  0999 V2000
    0.0000    3.3000    0.0000 N   0  0  0  0  0  0  0  0  0  0  0  0
    0.0000    2.4750    0.0000 C   0  0  0  0  0  0  0  0  0  0  0  0
    0.7145    2.0625    0.0000 C   0  0  0  0  0  0  0  0  0  0  0  0
    0.7145    1.2375    0.0000 C   0  0  0  0  0  0  0  0  0  0  0  0
    1.4289    0.8250    0.0000 C   0  0  0  0  0  0  0  0  0  0  0  0
    1.4289    0.0000    0.0000 C   0  0  0  0  0  0  0  0  0  0  0  0
    0.7145   -0.4125    0.0000 C   0  0  0  0  0  0  0  0  0  0  0  0
    0.0000    0.0000    0.0000 C   0  0  0  0  0  0  0  0  0  0  0  0
    0.0000    0.8250    0.0000 N   0  0  0  0  0  0  0  0  0  0  0  0
   -0.7145    2.0625    0.0000 C   0  0  0  0  0  0  0  0  0  0  0  0
   -1.4289    2.4750    0.0000 O   0  0  0  0  0  0  0  0  0  0  0  0
   -0.7145    3.7125    0.0000 R#  0  0  0  0  0  0  0  0  0  0  0  0
   -0.7145    1.2375    0.0000 R#  0  0  0  0  0  0  0  0  0  0  0  0
 12  1  1  0
  2  1  1  0
  2  3  1  6
  3  4  1  0
  4  5  2  0
  5  6  1  0
  6  7  2  0
  7  8  1  0
  8  9  2  0
  4  9  1  0
  2 10  1  0
 10 13  1  0
 10 11  2  0
M  RGP  2  12   1  13   2
V   12 *
V   13 *
M  END
>  <m_name>  (138)
D-3-(2-Pyridyl)-alanine

>  <symbol>  (138)
D_2Pal

>  <m_abbr>  (138)
D_2Pal

>  <m_type>  (138)
aa

>  <m_subtype>  (138)
non-natural

>  <m_Rgroups>  (138)
H,OH,None,None

>  <m_RgroupIdx>  (138)
11,12,None,None

>  <m_attachmentPointIdx>  (138)
0,9,None,None

>  <natAnalog>  (138)
X

>  <pdbName>  (138)
DVI

$$$$

     RDKit          2D

  8  7  0  0  0  0  0  0  0  0999 V2000
    0.0000   -1.4289    0.0000 C   0  0  0  0  0  0  0  0  0  0  0  0
    0.8250   -1.4289    0.0000 C   0  0  0  0  0  0  0  0  0  0  0  0
    1.2375   -0.7145    0.0000 C   0  0  0  0  0  0  0  0  0  0  0  0
    2.0625   -0.7145    0.0000 N   0  0  0  0  0  0  0  0  0  0  0  0
    0.8250    0.0000    0.0000 C   0  0  0  0  0  0  0  0  0  0  0  0
    0.0000    0.0000    0.0000 O   0  0  0  0  0  0  0  0  0  0  0  0
    2.4750    0.0000    0.0000 R#  0  0  0  0  0  0  0  0  0  0  0  0
    1.2375    0.7145    0.0000 R#  0  0  0  0  0  0  0  0  0  0  0  0
  1  2  1  0
  3  2  1  6
  3  4  1  0
  4  7  1  0
  3  5  1  0
  5  8  1  0
  5  6  2  0
M  RGP  2   7   1   8   2
V    7 *
V    8 *
M  END
>  <m_name>  (139)
D-2-aminobutanoic acid

>  <symbol>  (139)
D_Abu

>  <m_abbr>  (139)
D_Abu

>  <m_type>  (139)
aa

>  <m_subtype>  (139)
non-natural

>  <m_Rgroups>  (139)
H,OH,None,None

>  <m_RgroupIdx>  (139)
6,7,None,None

>  <m_attachmentPointIdx>  (139)
3,4,None,None

>  <natAnalog>  (139)
X

>  <pdbName>  (139)
DVO

$$$$

     RDKit          2D

  9  8  0  0  0  0  0  0  0  0999 V2000
    1.9520   -1.9520    0.0000 N   0  0  0  0  0  0  0  0  0  0  0  0
    1.9520   -1.1270    0.0000 C   0  0  0  0  0  0  0  0  0  0  0  0
    1.2375   -0.7145    0.0000 C   0  0  0  0  0  0  0  0  0  0  0  0
    1.2375    0.1105    0.0000 N   0  0  0  0  0  0  0  0  0  0  0  0
    2.6664   -0.7145    0.0000 C   0  0  0  0  0  0  0  0  0  0  0  0
    3.3809   -1.1270    0.0000 O   0  0  0  0  0  0  0  0  0  0  0  0
    2.6664   -2.3645    0.0000 R#  0  0  0  0  0  0  0  0  0  0  0  0
    0.5230    0.5230    0.0000 R#  0  0  0  0  0  0  0  0  0  0  0  0
    2.6664    0.1105    0.0000 R#  0  0  0  0  0  0  0  0  0  0  0  0
  7  1  1  0
  2  1  1  0
  2  3  1  6
  3  4  1  0
  4  8  1  0
  2  5  1  0
  5  9  1  0
  5  6  2  0
M  RGP  3   7   1   8   3   9   2
V    7 *
V    8 *
V    9 *
M  END
>  <m_name>  (140)
D-2,3-diaminopropanoic acid

>  <symbol>  (140)
D_Dap

>  <m_abbr>  (140)
D_Dap

>  <m_type>  (140)
aa

>  <m_subtype>  (140)
non-natural

>  <m_Rgroups>  (140)
H,OH,H,None

>  <m_RgroupIdx>  (140)
6,8,7,None

>  <m_attachmentPointIdx>  (140)
0,4,3,None

>  <natAnalog>  (140)
X

>  <pdbName>  (140)
DVS

$$$$

     RDKit          2D

 14 13  0  0  0  0  0  0  0  0999 V2000
    5.2882   -4.9755    0.0000 N   0  0  0  0  0  0  0  0  0  0  0  0
    4.7481   -4.3519    0.0000 C   0  0  0  0  0  0  0  0  0  0  0  0
    3.9379   -4.5078    0.0000 C   0  0  0  0  0  0  0  0  0  0  0  0
    3.3979   -3.8842    0.0000 C   0  0  0  0  0  0  0  0  0  0  0  0
    2.5877   -4.0401    0.0000 C   0  0  0  0  0  0  0  0  0  0  0  0
    2.0476   -3.4164    0.0000 C   0  0  0  0  0  0  0  0  0  0  0  0
    1.2375   -3.5724    0.0000 C   0  0  0  0  0  0  0  0  0  0  0  0
    0.6974   -2.9487    0.0000 C   0  0  0  0  0  0  0  0  0  0  0  0
    0.9675   -2.1692    0.0000 O   0  0  0  0  0  0  0  0  0  0  0  0
    5.0181   -3.5724    0.0000 C   0  0  0  0  0  0  0  0  0  0  0  0
    5.8283   -3.4164    0.0000 O   0  0  0  0  0  0  0  0  0  0  0  0
    6.0983   -4.8196    0.0000 R#  0  0  0  0  0  0  0  0  0  0  0  0
   -0.1127   -3.1046    0.0000 R#  0  0  0  0  0  0  0  0  0  0  0  0
    4.4780   -2.9487    0.0000 R#  0  0  0  0  0  0  0  0  0  0  0  0
 12  1  1  0
  2  1  1  0
  2  3  1  1
  3  4  1  0
  4  5  1  0
  5  6  1  0
  6  7  1  0
  7  8  1  0
  8 13  1  0
  8  9  2  0
  2 10  1  0
 10 14  1  0
 10 11  2  0
M  RGP  3  12   1  13   3  14   2
V   12 *
V   13 *
V   14 *
M  END
>  <m_name>  (141)
2-Aminosuberic acid

>  <symbol>  (141)
Asu

>  <m_abbr>  (141)
Asu

>  <m_type>  (141)
aa

>  <m_subtype>  (141)
non-natural

>  <m_Rgroups>  (141)
H,OH,OH,None

>  <m_RgroupIdx>  (141)
11,13,12,None

>  <m_attachmentPointIdx>  (141)
0,9,7,None

>  <natAnalog>  (141)
X

>  <pdbName>  (141)
AS5

$$$$

     RDKit          2D

 11 11  0  0  0  0  0  0  0  0999 V2000
    0.0000    3.3000    0.0000 C   0  0  0  0  0  0  0  0  0  0  0  0
    0.7145    3.7125    0.0000 O   0  0  0  0  0  0  0  0  0  0  0  0
    0.0000    2.4750    0.0000 O   0  0  0  0  0  0  0  0  0  0  0  0
    0.7145    2.0625    0.0000 C   0  0  0  0  0  0  0  0  0  0  0  0
    0.7145    1.2375    0.0000 C   0  0  0  0  0  0  0  0  0  0  0  0
    1.4289    0.8250    0.0000 C   0  0  0  0  0  0  0  0  0  0  0  0
    1.4289    0.0000    0.0000 C   0  0  0  0  0  0  0  0  0  0  0  0
    0.7145   -0.4125    0.0000 C   0  0  0  0  0  0  0  0  0  0  0  0
    0.0000    0.0000    0.0000 C   0  0  0  0  0  0  0  0  0  0  0  0
    0.0000    0.8250    0.0000 C   0  0  0  0  0  0  0  0  0  0  0  0
   -0.7145    3.7125    0.0000 R#  0  0  0  0  0  0  0  0  0  0  0  0
 11  1  1  0
  1  2  2  0
  1  3  1  0
  3  4  1  0
  4  5  1  0
  5  6  2  0
  6  7  1  0
  7  8  2  0
  8  9  1  0
  9 10  2  0
  5 10  1  0
M  RGP  1  11   2
V   11 *
M  END
>  <m_name>  (142)
Carboxybenzyl

>  <symbol>  (142)
Cbz

>  <m_abbr>  (142)
Cbz

>  <m_type>  (142)
aa

>  <m_subtype>  (142)
aa

>  <m_Rgroups>  (142)
None,OH,None,None

>  <m_RgroupIdx>  (142)
None,10,None,None

>  <m_attachmentPointIdx>  (142)
None,0,None,None

>  <natAnalog>  (142)
X

>  <pdbName>  (142)
CBS

$$$$

     RDKit          2D

  3  2  0  0  0  0  0  0  0  0999 V2000
    1.2375   -0.7145    0.0000 C   0  0  0  0  0  0  0  0  0  0  0  0
    1.9520   -1.1270    0.0000 C   0  0  0  0  0  0  0  0  0  0  0  0
    2.6664   -0.7145    0.0000 R#  0  0  0  0  0  0  0  0  0  0  0  0
  1  2  1  0
  2  3  1  0
M  RGP  1   3   1
V    3 *
M  END
>  <m_name>  (143)
C-Terminal ethyl

>  <symbol>  (143)
_Et

>  <m_abbr>  (143)
_Et

>  <m_type>  (143)
aa

>  <m_subtype>  (143)
aa

>  <m_Rgroups>  (143)
H,None,None,None

>  <m_RgroupIdx>  (143)
2,None,None,None

>  <m_attachmentPointIdx>  (143)
1,None,None,None

>  <natAnalog>  (143)
X

>  <pdbName>  (143)
ETJ

$$$$

     RDKit          2D

  4  3  0  0  0  0  0  0  0  0999 V2000
    2.0625   -0.7145    0.0000 C   0  0  0  0  0  0  0  0  0  0  0  0
    1.2375   -0.7145    0.0000 C   0  0  0  0  0  0  0  0  0  0  0  0
    0.8250    0.0000    0.0000 N   0  0  0  0  0  0  0  0  0  0  0  0
    0.0000    0.0000    0.0000 R#  0  0  0  0  0  0  0  0  0  0  0  0
  1  2  1  0
  2  3  1  0
  3  4  1  0
M  RGP  1   4   1
V    4 *
M  END
>  <m_name>  (144)
Ethanamine

>  <symbol>  (144)
NHEt

>  <m_abbr>  (144)
NHEt

>  <m_type>  (144)
aa

>  <m_subtype>  (144)
aa

>  <m_Rgroups>  (144)
H,None,None,None

>  <m_RgroupIdx>  (144)
3,None,None,None

>  <m_attachmentPointIdx>  (144)
2,None,None,None

>  <natAnalog>  (144)
X

>  <pdbName>  (144)
NHA

$$$$

     RDKit          2D

  4  3  0  0  0  0  0  0  0  0999 V2000
    2.0625   -0.7145    0.0000 C   0  0  0  0  0  0  0  0  0  0  0  0
    1.2375   -0.7145    0.0000 C   0  0  0  0  0  0  0  0  0  0  0  0
    0.8250    0.0000    0.0000 O   0  0  0  0  0  0  0  0  0  0  0  0
    0.0000    0.0000    0.0000 R#  0  0  0  0  0  0  0  0  0  0  0  0
  1  2  1  0
  2  3  1  0
  3  4  1  0
M  RGP  1   4   1
V    4 *
M  END
>  <m_name>  (145)
Ethanol

>  <symbol>  (145)
OEt

>  <m_abbr>  (145)
OEt

>  <m_type>  (145)
aa

>  <m_subtype>  (145)
aa

>  <m_Rgroups>  (145)
H,None,None,None

>  <m_RgroupIdx>  (145)
3,None,None,None

>  <m_attachmentPointIdx>  (145)
2,None,None,None

>  <natAnalog>  (145)
X

>  <pdbName>  (145)
OEI

$$$$

     RDKit          2D

  3  2  0  0  0  0  0  0  0  0999 V2000
    1.2375   -0.7145    0.0000 C   0  0  0  0  0  0  0  0  0  0  0  0
    1.9520   -1.1270    0.0000 O   0  0  0  0  0  0  0  0  0  0  0  0
    2.6664   -0.7145    0.0000 R#  0  0  0  0  0  0  0  0  0  0  0  0
  1  2  1  0
  2  3  1  0
M  RGP  1   3   1
V    3 *
M  END
>  <m_name>  (146)
C-Terminal methanol

>  <symbol>  (146)
_OMe

>  <m_abbr>  (146)
_OMe

>  <m_type>  (146)
aa

>  <m_subtype>  (146)
aa

>  <m_Rgroups>  (146)
H,None,None,None

>  <m_RgroupIdx>  (146)
2,None,None,None

>  <m_attachmentPointIdx>  (146)
1,None,None,None

>  <natAnalog>  (146)
X

>  <pdbName>  (146)
OML

$$$$

     RDKit          2D

  6  5  0  0  0  0  0  0  0  0999 V2000
    1.6500   -1.4289    0.0000 C   0  0  0  0  0  0  0  0  0  0  0  0
    1.2375   -0.7145    0.0000 C   0  0  0  0  0  0  0  0  0  0  0  0
    1.9520   -0.3020    0.0000 C   0  0  0  0  0  0  0  0  0  0  0  0
    0.5230   -1.1270    0.0000 C   0  0  0  0  0  0  0  0  0  0  0  0
    0.8250    0.0000    0.0000 O   0  0  0  0  0  0  0  0  0  0  0  0
    0.0000    0.0000    0.0000 R#  0  0  0  0  0  0  0  0  0  0  0  0
  1  2  1  0
  2  3  1  0
  2  4  1  0
  2  5  1  0
  5  6  1  0
M  RGP  1   6   1
V    6 *
M  END
>  <m_name>  (147)
O-tert-Butyl

>  <symbol>  (147)
OtBu

>  <m_abbr>  (147)
OtBu

>  <m_type>  (147)
aa

>  <m_subtype>  (147)
aa

>  <m_Rgroups>  (147)
H,None,None,None

>  <m_RgroupIdx>  (147)
5,None,None,None

>  <m_attachmentPointIdx>  (147)
4,None,None,None

>  <natAnalog>  (147)
X

>  <pdbName>  (147)
OTI

$$$$

     RDKit          2D

 11 11  0  0  0  0  0  0  0  0999 V2000
    0.7145    2.0625    0.0000 C   0  0  0  0  0  0  0  0  0  0  0  0
    0.7145    1.2375    0.0000 C   0  0  0  0  0  0  0  0  0  0  0  0
    1.4289    0.8250    0.0000 C   0  0  0  0  0  0  0  0  0  0  0  0
    1.4289    0.0000    0.0000 C   0  0  0  0  0  0  0  0  0  0  0  0
    0.7145   -0.4125    0.0000 C   0  0  0  0  0  0  0  0  0  0  0  0
    0.0000    0.0000    0.0000 C   0  0  0  0  0  0  0  0  0  0  0  0
    0.0000    0.8250    0.0000 C   0  0  0  0  0  0  0  0  0  0  0  0
    0.7145   -1.2375    0.0000 S   0  0  0  0  0  0  0  0  0  0  0  0
   -0.1105   -1.2375    0.0000 O   0  0  0  0  0  0  0  0  0  0  0  0
    1.5395   -1.2375    0.0000 O   0  0  0  0  0  0  0  0  0  0  0  0
    0.7145   -2.0625    0.0000 R#  0  0  0  0  0  0  0  0  0  0  0  0
  1  2  1  0
  2  3  2  0
  3  4  1  0
  4  5  2  0
  5  6  1  0
  6  7  2  0
  2  7  1  0
  5  8  1  0
  8 11  1  0
  8  9  2  0
  8 10  2  0
M  RGP  1  11   2
V   11 *
M  END
>  <m_name>  (148)
Tosyl

>  <symbol>  (148)
Tos

>  <m_abbr>  (148)
Tos

>  <m_type>  (148)
aa

>  <m_subtype>  (148)
aa

>  <m_Rgroups>  (148)
None,OH,None,None

>  <m_RgroupIdx>  (148)
None,10,None,None

>  <m_attachmentPointIdx>  (148)
None,7,None,None

>  <natAnalog>  (148)
X

>  <pdbName>  (148)
TOO

$$$$

     RDKit          2D

  9  9  0  0  0  0  0  0  0  0999 V2000
    0.5678    1.1143    0.0000 N   0  0  0  0  0  0  0  0  0  0  0  0
    1.2352    0.6294    0.0000 C   0  0  0  0  0  0  0  0  0  0  0  0
    0.9803   -0.1553    0.0000 S   0  0  0  0  0  0  0  0  0  0  0  0
    0.1553   -0.1553    0.0000 C   0  0  0  0  0  0  0  0  0  0  0  0
   -0.0997    0.6294    0.0000 C   0  0  0  0  0  0  0  0  0  0  0  0
   -0.8843    0.8843    0.0000 C   0  0  0  0  0  0  0  0  0  0  0  0
   -1.0558    1.6913    0.0000 O   0  0  0  0  0  0  0  0  0  0  0  0
    0.5678    1.9393    0.0000 R#  0  0  0  0  0  0  0  0  0  0  0  0
   -1.4974    0.3323    0.0000 R#  0  0  0  0  0  0  0  0  0  0  0  0
  8  1  1  0
  1  2  1  0
  2  3  1  0
  3  4  1  0
  5  4  1  0
  5  1  1  0
  5  6  1  6
  6  9  1  0
  6  7  2  0
M  RGP  2   8   1   9   2
V    8 *
V    9 *
M  END
>  <m_name>  (149)
(4S)-1,3-thiazolidine-4-carboxylic acid

>  <symbol>  (149)
D_Thz

>  <m_abbr>  (149)
D_Thz

>  <m_type>  (149)
aa

>  <m_subtype>  (149)
non-natural

>  <m_Rgroups>  (149)
H,OH,None,None

>  <m_RgroupIdx>  (149)
7,8,None,None

>  <m_attachmentPointIdx>  (149)
0,5,None,None

>  <natAnalog>  (149)
X

>  <pdbName>  (149)
DVT

$$$$

     RDKit          2D

 18 20  0  0  0  0  0  0  0  0999 V2000
    1.2195    3.5730    0.0000 C   0  0  0  0  0  0  0  0  0  0  0  0
    1.9339    3.9855    0.0000 O   0  0  0  0  0  0  0  0  0  0  0  0
    1.2195    2.7480    0.0000 O   0  0  0  0  0  0  0  0  0  0  0  0
    1.9339    2.3355    0.0000 C   0  0  0  0  0  0  0  0  0  0  0  0
    1.9339    1.5105    0.0000 C   0  0  0  0  0  0  0  0  0  0  0  0
    2.6014    1.0256    0.0000 C   0  0  0  0  0  0  0  0  0  0  0  0
    3.4084    1.1971    0.0000 C   0  0  0  0  0  0  0  0  0  0  0  0
    3.9604    0.5840    0.0000 C   0  0  0  0  0  0  0  0  0  0  0  0
    3.7054   -0.2006    0.0000 C   0  0  0  0  0  0  0  0  0  0  0  0
    2.8985   -0.3721    0.0000 C   0  0  0  0  0  0  0  0  0  0  0  0
    2.3464    0.2410    0.0000 C   0  0  0  0  0  0  0  0  0  0  0  0
    1.5214    0.2410    0.0000 C   0  0  0  0  0  0  0  0  0  0  0  0
    0.9694   -0.3721    0.0000 C   0  0  0  0  0  0  0  0  0  0  0  0
    0.1624   -0.2006    0.0000 C   0  0  0  0  0  0  0  0  0  0  0  0
   -0.0925    0.5840    0.0000 C   0  0  0  0  0  0  0  0  0  0  0  0
    0.4595    1.1971    0.0000 C   0  0  0  0  0  0  0  0  0  0  0  0
    1.2665    1.0256    0.0000 C   0  0  0  0  0  0  0  0  0  0  0  0
    0.5050    3.9855    0.0000 R#  0  0  0  0  0  0  0  0  0  0  0  0
 18  1  1  0
  1  2  2  0
  1  3  1  0
  3  4  1  0
  4  5  1  0
  5  6  1  0
  6  7  2  0
  7  8  1  0
  8  9  2  0
  9 10  1  0
 10 11  2  0
  6 11  1  0
 11 12  1  0
 12 13  2  0
 13 14  1  0
 14 15  2  0
 15 16  1  0
 16 17  2  0
  5 17  1  0
 12 17  1  0
M  RGP  1  18   2
V   18 *
M  END
>  <m_name>  (150)
Fluorenylmethoxycarbonyl

>  <symbol>  (150)
fmoc

>  <m_abbr>  (150)
fmoc

>  <m_type>  (150)
aa

>  <m_subtype>  (150)
aa

>  <m_Rgroups>  (150)
None,OH,None,None

>  <m_RgroupIdx>  (150)
None,17,None,None

>  <m_attachmentPointIdx>  (150)
None,0,None,None

>  <natAnalog>  (150)
X

>  <pdbName>  (150)
FM3

$$$$

     RDKit          2D

  7  6  0  0  0  0  0  0  0  0999 V2000
    2.0625    0.7145    0.0000 C   0  0  0  0  0  0  0  0  0  0  0  0
    1.2375    0.7145    0.0000 C   0  0  0  0  0  0  0  0  0  0  0  0
    0.8250    1.4289    0.0000 S   0  0  0  0  0  0  0  0  0  0  0  0
    0.8250    0.0000    0.0000 C   0  0  0  0  0  0  0  0  0  0  0  0
    0.0000    0.0000    0.0000 O   0  0  0  0  0  0  0  0  0  0  0  0
    1.2375    2.1434    0.0000 R#  0  0  0  0  0  0  0  0  0  0  0  0
    1.2375   -0.7145    0.0000 R#  0  0  0  0  0  0  0  0  0  0  0  0
  2  1  1  1
  2  3  1  0
  3  6  1  0
  2  4  1  0
  4  7  1  0
  4  5  2  0
M  RGP  2   6   3   7   2
V    6 *
V    7 *
M  END
>  <m_name>  (151)
(S)-2-Mercaptopropanoic acid

>  <symbol>  (151)
Mpa

>  <m_abbr>  (151)
Mpa

>  <m_type>  (151)
aa

>  <m_subtype>  (151)
aa

>  <m_Rgroups>  (151)
None,OH,None,None

>  <m_RgroupIdx>  (151)
None,6,5,None

>  <m_attachmentPointIdx>  (151)
None,3,2,None

>  <natAnalog>  (151)
X

>  <pdbName>  (151)
MPF

$$$$

     RDKit          2D

  6  5  0  0  0  0  0  0  0  0999 V2000
    1.2375    2.1434    0.0000 C   0  0  0  0  0  0  0  0  0  0  0  0
    0.8250    1.4289    0.0000 C   0  0  0  0  0  0  0  0  0  0  0  0
    1.2375    0.7145    0.0000 C   0  0  0  0  0  0  0  0  0  0  0  0
    0.8250    0.0000    0.0000 C   0  0  0  0  0  0  0  0  0  0  0  0
    0.0000    0.0000    0.0000 O   0  0  0  0  0  0  0  0  0  0  0  0
    1.2375   -0.7145    0.0000 R#  0  0  0  0  0  0  0  0  0  0  0  0
  1  2  1  0
  2  3  1  0
  3  4  1  0
  4  6  1  0
  4  5  2  0
M  RGP  1   6   2
V    6 *
M  END
>  <m_name>  (152)
Butanoic acid

>  <symbol>  (152)
Bua

>  <m_abbr>  (152)
Bua

>  <m_type>  (152)
aa

>  <m_subtype>  (152)
aa

>  <m_Rgroups>  (152)
None,OH,None,None

>  <m_RgroupIdx>  (152)
None,5,None,None

>  <m_attachmentPointIdx>  (152)
None,3,None,None

>  <natAnalog>  (152)
X

>  <pdbName>  (152)
BUS

$$$$

     RDKit          2D

  5  4  0  0  0  0  0  0  0  0999 V2000
    0.8250    1.4289    0.0000 O   0  0  0  0  0  0  0  0  0  0  0  0
    1.2375    0.7145    0.0000 C   0  0  0  0  0  0  0  0  0  0  0  0
    0.8250    0.0000    0.0000 C   0  0  0  0  0  0  0  0  0  0  0  0
    0.0000    0.0000    0.0000 O   0  0  0  0  0  0  0  0  0  0  0  0
    1.2375   -0.7145    0.0000 R#  0  0  0  0  0  0  0  0  0  0  0  0
  1  2  1  0
  2  3  1  0
  3  5  1  0
  3  4  2  0
M  RGP  1   5   2
V    5 *
M  END
>  <m_name>  (153)
Glycolic acid

>  <symbol>  (153)
Glc

>  <m_abbr>  (153)
Glc

>  <m_type>  (153)
aa

>  <m_subtype>  (153)
aa

>  <m_Rgroups>  (153)
None,OH,None,None

>  <m_RgroupIdx>  (153)
None,4,None,None

>  <m_attachmentPointIdx>  (153)
None,2,None,None

>  <natAnalog>  (153)
X

>  <pdbName>  (153)
GAY

$$$$

     RDKit          2D

  6  5  0  0  0  0  0  0  0  0999 V2000
    1.2375    2.1434    0.0000 S   0  0  0  0  0  0  0  0  0  0  0  0
    0.8250    1.4289    0.0000 C   0  0  0  0  0  0  0  0  0  0  0  0
    1.2375    0.7145    0.0000 C   0  0  0  0  0  0  0  0  0  0  0  0
    0.8250    0.0000    0.0000 C   0  0  0  0  0  0  0  0  0  0  0  0
    0.0000    0.0000    0.0000 O   0  0  0  0  0  0  0  0  0  0  0  0
    1.2375   -0.7145    0.0000 R#  0  0  0  0  0  0  0  0  0  0  0  0
  1  2  1  0
  2  3  1  0
  3  4  1  0
  4  6  1  0
  4  5  2  0
M  RGP  1   6   2
V    6 *
M  END
>  <m_name>  (154)
Deamino-Cysteine

>  <symbol>  (154)
deamino_Cys

>  <m_abbr>  (154)
deamino_Cys

>  <m_type>  (154)
aa

>  <m_subtype>  (154)
aa

>  <m_Rgroups>  (154)
None,OH,None,None

>  <m_RgroupIdx>  (154)
None,5,None,None

>  <m_attachmentPointIdx>  (154)
None,3,None,None

>  <natAnalog>  (154)
C

>  <pdbName>  (154)
DVU

$$$$

     RDKit          2D

  8  7  0  0  0  0  0  0  0  0999 V2000
    1.7605    1.8414    0.0000 O   0  0  0  0  0  0  0  0  0  0  0  0
    2.4750    1.4289    0.0000 C   0  0  0  0  0  0  0  0  0  0  0  0
    2.4750    0.6039    0.0000 O   0  0  0  0  0  0  0  0  0  0  0  0
    3.1895    1.8414    0.0000 C   0  0  0  0  0  0  0  0  0  0  0  0
    3.9039    1.4289    0.0000 C   0  0  0  0  0  0  0  0  0  0  0  0
    4.6184    1.8414    0.0000 C   0  0  0  0  0  0  0  0  0  0  0  0
    5.3329    1.4289    0.0000 N   0  0  0  0  0  0  0  0  0  0  0  0
    6.0474    1.8414    0.0000 R#  0  0  0  0  0  0  0  0  0  0  0  0
  1  2  1  0
  2  3  2  0
  2  4  1  0
  4  5  1  0
  5  6  1  0
  6  7  1  0
  7  8  1  0
M  RGP  1   8   1
V    8 *
M  END
>  <m_name>  (155)
4-aminobutanoic acid

>  <symbol>  (155)
deamino_Dab

>  <m_abbr>  (155)
deamino_Dab

>  <m_type>  (155)
aa

>  <m_subtype>  (155)
aa

>  <m_Rgroups>  (155)
H,None,None,None

>  <m_RgroupIdx>  (155)
7,None,None,None

>  <m_attachmentPointIdx>  (155)
6,None,None,None

>  <natAnalog>  (155)
X

>  <pdbName>  (155)
DVV

$$$$

     RDKit          2D

  6  5  0  0  0  0  0  0  0  0999 V2000
    2.0625   -0.7145    0.0000 C   0  0  0  0  0  0  0  0  0  0  0  0
    1.6500   -1.4289    0.0000 O   0  0  0  0  0  0  0  0  0  0  0  0
    1.6500    0.0000    0.0000 C   0  0  0  0  0  0  0  0  0  0  0  0
    0.8250    0.0000    0.0000 C   0  0  0  0  0  0  0  0  0  0  0  0
    0.0000    0.0000    0.0000 N   0  0  0  0  0  0  0  0  0  0  0  0
    2.8875   -0.7145    0.0000 R#  0  0  0  0  0  0  0  0  0  0  0  0
  6  1  1  0
  1  2  2  0
  1  3  1  0
  3  4  1  0
  4  5  3  0
M  RGP  1   6   2
V    6 *
M  END
>  <m_name>  (156)
2-cyanoacetic acid

>  <symbol>  (156)
deamino_Gly_CN

>  <m_abbr>  (156)
deamino_Gly_CN

>  <m_type>  (156)
aa

>  <m_subtype>  (156)
aa

>  <m_Rgroups>  (156)
None,OH,None,None

>  <m_RgroupIdx>  (156)
None,5,None,None

>  <m_attachmentPointIdx>  (156)
None,0,None,None

>  <natAnalog>  (156)
G

>  <pdbName>  (156)
DVY

$$$$

     RDKit          2D

  9  9  0  0  0  0  0  0  0  0999 V2000
   -0.1467    2.3518    0.0000 C   0  0  0  0  0  0  0  0  0  0  0  0
   -0.8612    1.9393    0.0000 O   0  0  0  0  0  0  0  0  0  0  0  0
    0.5678    1.9393    0.0000 C   0  0  0  0  0  0  0  0  0  0  0  0
    0.5678    1.1143    0.0000 C   0  0  0  0  0  0  0  0  0  0  0  0
    1.2352    0.6294    0.0000 C   0  0  0  0  0  0  0  0  0  0  0  0
    0.9803   -0.1553    0.0000 C   0  0  0  0  0  0  0  0  0  0  0  0
    0.1553   -0.1553    0.0000 C   0  0  0  0  0  0  0  0  0  0  0  0
   -0.0997    0.6294    0.0000 C   0  0  0  0  0  0  0  0  0  0  0  0
   -0.1467    3.1768    0.0000 R#  0  0  0  0  0  0  0  0  0  0  0  0
  9  1  1  0
  1  2  2  0
  1  3  1  0
  3  4  1  0
  4  5  1  0
  5  6  1  0
  6  7  1  0
  7  8  1  0
  4  8  1  0
M  RGP  1   9   2
V    9 *
M  END
>  <m_name>  (157)
2-cyclopentylacetic acid

>  <symbol>  (157)
deamino_Gly_cPent

>  <m_abbr>  (157)
deamino_Gly_cPent

>  <m_type>  (157)
aa

>  <m_subtype>  (157)
aa

>  <m_Rgroups>  (157)
None,OH,None,None

>  <m_RgroupIdx>  (157)
None,8,None,None

>  <m_attachmentPointIdx>  (157)
None,0,None,None

>  <natAnalog>  (157)
G

>  <pdbName>  (157)
DWL

$$$$

     RDKit          2D

  6  5  0  0  0  0  0  0  0  0999 V2000
    2.4750   -1.4289    0.0000 O   0  0  0  0  0  0  0  0  0  0  0  0
    2.0625   -0.7145    0.0000 C   0  0  0  0  0  0  0  0  0  0  0  0
    2.4750    0.0000    0.0000 O   0  0  0  0  0  0  0  0  0  0  0  0
    1.2375   -0.7145    0.0000 C   0  0  0  0  0  0  0  0  0  0  0  0
    0.8250    0.0000    0.0000 O   0  0  0  0  0  0  0  0  0  0  0  0
    0.0000    0.0000    0.0000 R#  0  0  0  0  0  0  0  0  0  0  0  0
  1  2  1  0
  2  3  2  0
  2  4  1  0
  4  5  1  0
  5  6  1  0
M  RGP  1   6   1
V    6 *
M  END
>  <m_name>  (158)
2-hydroxyacetic acid

>  <symbol>  (158)
deamino_Gly_OH

>  <m_abbr>  (158)
deamino_Gly_OH

>  <m_type>  (158)
aa

>  <m_subtype>  (158)
aa

>  <m_Rgroups>  (158)
H,None,None,None

>  <m_RgroupIdx>  (158)
5,None,None,None

>  <m_attachmentPointIdx>  (158)
4,None,None,None

>  <natAnalog>  (158)
G

>  <pdbName>  (158)
DWO

$$$$

     RDKit          2D

  9  9  0  0  0  0  0  0  0  0999 V2000
   -0.1467    2.3518    0.0000 C   0  0  0  0  0  0  0  0  0  0  0  0
   -0.8612    1.9393    0.0000 O   0  0  0  0  0  0  0  0  0  0  0  0
    0.5678    1.9393    0.0000 C   0  0  0  0  0  0  0  0  0  0  0  0
    0.5678    1.1143    0.0000 C   0  0  0  0  0  0  0  0  0  0  0  0
    1.2352    0.6294    0.0000 C   0  0  0  0  0  0  0  0  0  0  0  0
    0.9803   -0.1553    0.0000 C   0  0  0  0  0  0  0  0  0  0  0  0
    0.1553   -0.1553    0.0000 C   0  0  0  0  0  0  0  0  0  0  0  0
   -0.0997    0.6294    0.0000 S   0  0  0  0  0  0  0  0  0  0  0  0
   -0.1467    3.1768    0.0000 R#  0  0  0  0  0  0  0  0  0  0  0  0
  9  1  1  0
  1  2  2  0
  1  3  1  0
  3  4  1  0
  4  5  2  0
  5  6  1  0
  6  7  2  0
  7  8  1  0
  4  8  1  0
M  RGP  1   9   2
V    9 *
M  END
>  <m_name>  (159)
2-(thiophen-2-yl)acetic acid

>  <symbol>  (159)
deamino_Gly_thien2yl

>  <m_abbr>  (159)
deamino_Gly_thien2yl

>  <m_type>  (159)
aa

>  <m_subtype>  (159)
aa

>  <m_Rgroups>  (159)
None,OH,None,None

>  <m_RgroupIdx>  (159)
None,8,None,None

>  <m_attachmentPointIdx>  (159)
None,0,None,None

>  <natAnalog>  (159)
G

>  <pdbName>  (159)
DWR

$$$$

     RDKit          2D

 18 19  0  0  0  0  0  0  0  0999 V2000
    2.2428   -2.5916    0.0000 N   0  0  0  0  0  0  0  0  0  0  0  0
    1.4358   -2.7631    0.0000 C   0  0  0  0  0  0  0  0  0  0  0  0
    0.8838   -2.1500    0.0000 C   0  0  0  0  0  0  0  0  0  0  0  0
    1.1387   -1.3654    0.0000 C   0  0  0  0  0  0  0  0  0  0  0  0
    0.6538   -0.6979    0.0000 C   0  0  0  0  0  0  0  0  0  0  0  0
    1.1387   -0.0305    0.0000 N   0  0  0  0  0  0  0  0  0  0  0  0
    0.8838    0.7541    0.0000 C   0  0  0  0  0  0  0  0  0  0  0  0
    0.0768    0.9256    0.0000 O   0  0  0  0  0  0  0  0  0  0  0  0
    1.9233   -0.2854    0.0000 C   0  0  0  0  0  0  0  0  0  0  0  0
    2.6378    0.1271    0.0000 C   0  0  0  0  0  0  0  0  0  0  0  0
    3.3523   -0.2854    0.0000 C   0  0  0  0  0  0  0  0  0  0  0  0
    3.3523   -1.1104    0.0000 C   0  0  0  0  0  0  0  0  0  0  0  0
    2.6378   -1.5229    0.0000 C   0  0  0  0  0  0  0  0  0  0  0  0
    1.9233   -1.1104    0.0000 C   0  0  0  0  0  0  0  0  0  0  0  0
    1.1809   -3.5477    0.0000 C   0  0  0  0  0  0  0  0  0  0  0  0
    1.7329   -4.1608    0.0000 O   0  0  0  0  0  0  0  0  0  0  0  0
    2.7948   -3.2047    0.0000 R#  0  0  0  0  0  0  0  0  0  0  0  0
    0.3739   -3.7192    0.0000 R#  0  0  0  0  0  0  0  0  0  0  0  0
 17  1  1  0
  2  1  1  0
  2  3  1  1
  3  4  1  0
  4  5  2  0
  5  6  1  0
  6  7  1  0
  7  8  2  0
  6  9  1  0
  9 10  2  0
 10 11  1  0
 11 12  2  0
 12 13  1  0
 13 14  2  0
  4 14  1  0
  9 14  1  0
  2 15  1  0
 15 18  1  0
 15 16  2  0
M  RGP  2  17   1  18   2
V   17 *
V   18 *
M  END
>  <m_name>  (160)
(2R)-2-amino-3-(1-formyl-1H-indol-3-yl)propanoic acid

>  <symbol>  (160)
D_Trp_For

>  <m_abbr>  (160)
D_Trp_For

>  <m_type>  (160)
aa

>  <m_subtype>  (160)
non-natural

>  <m_Rgroups>  (160)
H,OH,None,None

>  <m_RgroupIdx>  (160)
16,17,None,None

>  <m_attachmentPointIdx>  (160)
0,14,None,None

>  <natAnalog>  (160)
W

>  <pdbName>  (160)
DWU

$$$$

     RDKit          2D

  5  4  0  0  0  0  0  0  0  0999 V2000
    0.8250    1.4289    0.0000 S   0  0  0  0  0  0  0  0  0  0  0  0
    1.2375    0.7145    0.0000 C   0  0  0  0  0  0  0  0  0  0  0  0
    0.8250    0.0000    0.0000 C   0  0  0  0  0  0  0  0  0  0  0  0
    0.0000    0.0000    0.0000 O   0  0  0  0  0  0  0  0  0  0  0  0
    1.2375   -0.7145    0.0000 R#  0  0  0  0  0  0  0  0  0  0  0  0
  1  2  1  0
  2  3  1  0
  3  5  1  0
  3  4  2  0
M  RGP  1   5   2
V    5 *
M  END
>  <m_name>  (161)
2-sulfanylacetic acid

>  <symbol>  (161)
deamino_Ncy

>  <m_abbr>  (161)
deamino_Ncy

>  <m_type>  (161)
aa

>  <m_subtype>  (161)
aa

>  <m_Rgroups>  (161)
None,OH,None,None

>  <m_RgroupIdx>  (161)
None,4,None,None

>  <m_attachmentPointIdx>  (161)
None,2,None,None

>  <natAnalog>  (161)
X

>  <pdbName>  (161)
DW6

$$$$

     RDKit          2D

 12 12  0  0  0  0  0  0  0  0999 V2000
   -0.7145    3.7125    0.0000 O   0  0  0  0  0  0  0  0  0  0  0  0
    0.0000    3.3000    0.0000 C   0  0  0  0  0  0  0  0  0  0  0  0
    0.7145    3.7125    0.0000 O   0  0  0  0  0  0  0  0  0  0  0  0
    0.0000    2.4750    0.0000 C   0  0  0  0  0  0  0  0  0  0  0  0
    0.7145    2.0625    0.0000 C   0  0  0  0  0  0  0  0  0  0  0  0
    0.7145    1.2375    0.0000 C   0  0  0  0  0  0  0  0  0  0  0  0
    1.4289    0.8250    0.0000 C   0  0  0  0  0  0  0  0  0  0  0  0
    1.4289    0.0000    0.0000 C   0  0  0  0  0  0  0  0  0  0  0  0
    0.7145   -0.4125    0.0000 C   0  0  0  0  0  0  0  0  0  0  0  0
    0.0000    0.0000    0.0000 C   0  0  0  0  0  0  0  0  0  0  0  0
    0.0000    0.8250    0.0000 C   0  0  0  0  0  0  0  0  0  0  0  0
   -0.7145    2.0625    0.0000 R#  0  0  0  0  0  0  0  0  0  0  0  0
  1  2  1  0
  2  3  2  0
  2  4  1  0
  4 12  1  0
  4  5  1  0
  5  6  1  0
  6  7  2  0
  7  8  1  0
  8  9  2  0
  9 10  1  0
 10 11  2  0
  6 11  1  0
M  RGP  1  12   2
V   12 *
M  END
>  <m_name>  (162)
Deamino-Phenylalanine

>  <symbol>  (162)
deamino_Phe

>  <m_abbr>  (162)
deamino_Phe

>  <m_type>  (162)
aa

>  <m_subtype>  (162)
aa

>  <m_Rgroups>  (162)
None,OH,None,None

>  <m_RgroupIdx>  (162)
None,11,None,None

>  <m_attachmentPointIdx>  (162)
None,3,None,None

>  <natAnalog>  (162)
F

>  <pdbName>  (162)
DXI

$$$$

     RDKit          2D

 12 12  0  0  0  0  0  0  0  0999 V2000
    0.7145    2.0625    0.0000 C   0  0  0  0  0  0  0  0  0  0  0  0
    0.7145    1.2375    0.0000 C   0  0  0  0  0  0  0  0  0  0  0  0
    1.4289    0.8250    0.0000 C   0  0  0  0  0  0  0  0  0  0  0  0
    1.4289    0.0000    0.0000 C   0  0  0  0  0  0  0  0  0  0  0  0
    2.1434   -0.4125    0.0000 C   0  0  0  0  0  0  0  0  0  0  0  0
    0.7145   -0.4125    0.0000 C   0  0  0  0  0  0  0  0  0  0  0  0
    0.0000    0.0000    0.0000 C   0  0  0  0  0  0  0  0  0  0  0  0
   -0.7145   -0.4125    0.0000 C   0  0  0  0  0  0  0  0  0  0  0  0
   -1.4289    0.0000    0.0000 C   0  0  0  0  0  0  0  0  0  0  0  0
   -1.4289    0.8250    0.0000 O   0  0  0  0  0  0  0  0  0  0  0  0
    0.0000    0.8250    0.0000 C   0  0  0  0  0  0  0  0  0  0  0  0
   -2.1434   -0.4125    0.0000 R#  0  0  0  0  0  0  0  0  0  0  0  0
  1  2  1  0
  2  3  2  0
  3  4  1  0
  4  5  1  0
  4  6  2  0
  6  7  1  0
  7  8  1  0
  8  9  1  0
  9 12  1  0
  9 10  2  0
  7 11  2  0
  2 11  1  0
M  RGP  1  12   2
V   12 *
M  END
>  <m_name>  (163)
2-(3,5-dimethylphenyl)acetic acid

>  <symbol>  (163)
deamino_Phg_35diMe

>  <m_abbr>  (163)
deamino_Phg_35diMe

>  <m_type>  (163)
aa

>  <m_subtype>  (163)
aa

>  <m_Rgroups>  (163)
None,OH,None,None

>  <m_RgroupIdx>  (163)
None,11,None,None

>  <m_attachmentPointIdx>  (163)
None,8,None,None

>  <natAnalog>  (163)
F

>  <pdbName>  (163)
DYI

$$$$

     RDKit          2D

  8  7  0  0  0  0  0  0  0  0999 V2000
   -0.1914    0.7145    0.0000 C   0  0  0  0  0  0  0  0  0  0  0  0
    0.5230    1.1270    0.0000 C   0  0  0  0  0  0  0  0  0  0  0  0
    0.5230    1.9520    0.0000 C   0  0  0  0  0  0  0  0  0  0  0  0
    1.2375    0.7145    0.0000 C   0  0  0  0  0  0  0  0  0  0  0  0
    1.9520    1.1270    0.0000 C   0  0  0  0  0  0  0  0  0  0  0  0
    2.6664    0.7145    0.0000 C   0  0  0  0  0  0  0  0  0  0  0  0
    2.6664   -0.1105    0.0000 O   0  0  0  0  0  0  0  0  0  0  0  0
    3.3809    1.1270    0.0000 R#  0  0  0  0  0  0  0  0  0  0  0  0
  1  2  1  0
  2  3  1  0
  2  4  1  0
  4  5  1  0
  5  6  1  0
  6  8  1  0
  6  7  2  0
M  RGP  1   8   2
V    8 *
M  END
>  <m_name>  (164)
Deamino-Leucine

>  <symbol>  (164)
deamino_Leu

>  <m_abbr>  (164)
deamino_Leu

>  <m_type>  (164)
aa

>  <m_subtype>  (164)
aa

>  <m_Rgroups>  (164)
None,OH,None,None

>  <m_RgroupIdx>  (164)
None,7,None,None

>  <m_attachmentPointIdx>  (164)
None,5,None,None

>  <natAnalog>  (164)
L

>  <pdbName>  (164)
DYO

$$$$

     RDKit          2D

  6  5  0  0  0  0  0  0  0  0999 V2000
    0.8250    1.4289    0.0000 C   0  0  0  0  0  0  0  0  0  0  0  0
    1.2375    0.7145    0.0000 C   0  0  0  0  0  0  0  0  0  0  0  0
    2.0625    0.7145    0.0000 O   0  0  0  0  0  0  0  0  0  0  0  0
    0.8250    0.0000    0.0000 C   0  0  0  0  0  0  0  0  0  0  0  0
    0.0000    0.0000    0.0000 O   0  0  0  0  0  0  0  0  0  0  0  0
    1.2375   -0.7145    0.0000 R#  0  0  0  0  0  0  0  0  0  0  0  0
  2  1  1  1
  2  3  1  0
  2  4  1  0
  4  6  1  0
  4  5  2  0
M  RGP  1   6   2
V    6 *
M  END
>  <m_name>  (165)
(2R)-2-hydroxypropanoic acid

>  <symbol>  (165)
D_OAla

>  <m_abbr>  (165)
D_OAla

>  <m_type>  (165)
aa

>  <m_subtype>  (165)
aa

>  <m_Rgroups>  (165)
None,OH,None,None

>  <m_RgroupIdx>  (165)
None,5,None,None

>  <m_attachmentPointIdx>  (165)
None,3,None,None

>  <natAnalog>  (165)
A

>  <pdbName>  (165)
DYQ

$$$$

     RDKit          2D

  6  5  0  0  0  0  0  0  0  0999 V2000
    0.8250    1.4289    0.0000 C   0  0  0  0  0  0  0  0  0  0  0  0
    1.2375    0.7145    0.0000 C   0  0  0  0  0  0  0  0  0  0  0  0
    2.0625    0.7145    0.0000 O   0  0  0  0  0  0  0  0  0  0  0  0
    0.8250    0.0000    0.0000 C   0  0  0  0  0  0  0  0  0  0  0  0
    0.0000    0.0000    0.0000 O   0  0  0  0  0  0  0  0  0  0  0  0
    1.2375   -0.7145    0.0000 R#  0  0  0  0  0  0  0  0  0  0  0  0
  2  1  1  6
  2  3  1  0
  2  4  1  0
  4  6  1  0
  4  5  2  0
M  RGP  1   6   2
V    6 *
M  END
>  <m_name>  (166)
(2S)-2-hydroxypropanoic acid

>  <symbol>  (166)
L_OAla

>  <m_abbr>  (166)
L_OAla

>  <m_type>  (166)
aa

>  <m_subtype>  (166)
aa

>  <m_Rgroups>  (166)
None,OH,None,None

>  <m_RgroupIdx>  (166)
None,5,None,None

>  <m_attachmentPointIdx>  (166)
None,3,None,None

>  <natAnalog>  (166)
A

>  <pdbName>  (166)
LOO

$$$$

     RDKit          2D

  8  7  0  0  0  0  0  0  0  0999 V2000
    1.2375    2.1434    0.0000 C   0  0  0  0  0  0  0  0  0  0  0  0
    0.8250    1.4289    0.0000 C   0  0  0  0  0  0  0  0  0  0  0  0
    0.0000    1.4289    0.0000 C   0  0  0  0  0  0  0  0  0  0  0  0
    1.2375    0.7145    0.0000 C   0  0  0  0  0  0  0  0  0  0  0  0
    2.0625    0.7145    0.0000 O   0  0  0  0  0  0  0  0  0  0  0  0
    0.8250    0.0000    0.0000 C   0  0  0  0  0  0  0  0  0  0  0  0
    0.0000    0.0000    0.0000 O   0  0  0  0  0  0  0  0  0  0  0  0
    1.2375   -0.7145    0.0000 R#  0  0  0  0  0  0  0  0  0  0  0  0
  1  2  1  0
  2  3  1  0
  4  2  1  0
  4  5  1  6
  4  6  1  0
  6  8  1  0
  6  7  2  0
M  RGP  1   8   2
V    8 *
M  END
>  <m_name>  (167)
(2S)-2-hydroxy-3-methylbutanoic acid

>  <symbol>  (167)
L_OVal

>  <m_abbr>  (167)
L_OVal

>  <m_type>  (167)
aa

>  <m_subtype>  (167)
aa

>  <m_Rgroups>  (167)
None,OH,None,None

>  <m_RgroupIdx>  (167)
None,7,None,None

>  <m_attachmentPointIdx>  (167)
None,5,None,None

>  <natAnalog>  (167)
V

>  <pdbName>  (167)
LO0

$$$$

     RDKit          2D

  9  9  0  0  0  0  0  0  0  0999 V2000
    0.0000    2.4750    0.0000 N   0  0  0  0  0  0  0  0  0  0  0  0
    0.7145    2.0625    0.0000 C   0  0  0  0  0  0  0  0  0  0  0  0
    0.7145    1.2375    0.0000 C   0  0  0  0  0  0  0  0  0  0  0  0
    1.4289    0.8250    0.0000 C   0  0  0  0  0  0  0  0  0  0  0  0
    1.4289    0.0000    0.0000 C   0  0  0  0  0  0  0  0  0  0  0  0
    0.7145   -0.4125    0.0000 C   0  0  0  0  0  0  0  0  0  0  0  0
    0.0000    0.0000    0.0000 C   0  0  0  0  0  0  0  0  0  0  0  0
    0.0000    0.8250    0.0000 C   0  0  0  0  0  0  0  0  0  0  0  0
    0.0000    3.3000    0.0000 R#  0  0  0  0  0  0  0  0  0  0  0  0
  9  1  1  0
  1  2  1  0
  2  3  1  0
  3  4  2  0
  4  5  1  0
  5  6  2  0
  6  7  1  0
  7  8  2  0
  3  8  1  0
M  RGP  1   9   2
V    9 *
M  END
>  <m_name>  (168)
N-Terminal 1-phenylmethanamine

>  <symbol>  (168)
NHBn_

>  <m_abbr>  (168)
NHBn_

>  <m_type>  (168)
aa

>  <m_subtype>  (168)
aa

>  <m_Rgroups>  (168)
None,OH,None,None

>  <m_RgroupIdx>  (168)
None,8,None,None

>  <m_attachmentPointIdx>  (168)
None,0,None,None

>  <natAnalog>  (168)
X

>  <pdbName>  (168)
NHZ

$$$$

     RDKit          2D

  9  9  0  0  0  0  0  0  0  0999 V2000
    0.7145    2.0625    0.0000 C   0  0  0  0  0  0  0  0  0  0  0  0
    1.4289    2.4750    0.0000 O   0  0  0  0  0  0  0  0  0  0  0  0
    0.7145    1.2375    0.0000 C   0  0  0  0  0  0  0  0  0  0  0  0
    1.4289    0.8250    0.0000 C   0  0  0  0  0  0  0  0  0  0  0  0
    1.4289    0.0000    0.0000 C   0  0  0  0  0  0  0  0  0  0  0  0
    0.7145   -0.4125    0.0000 C   0  0  0  0  0  0  0  0  0  0  0  0
    0.0000    0.0000    0.0000 C   0  0  0  0  0  0  0  0  0  0  0  0
    0.0000    0.8250    0.0000 C   0  0  0  0  0  0  0  0  0  0  0  0
    0.0000    2.4750    0.0000 R#  0  0  0  0  0  0  0  0  0  0  0  0
  9  1  1  0
  1  2  2  0
  1  3  1  0
  3  4  2  0
  4  5  1  0
  5  6  2  0
  6  7  1  0
  7  8  2  0
  3  8  1  0
M  RGP  1   9   2
V    9 *
M  END
>  <m_name>  (169)
Benzaldehyde

>  <symbol>  (169)
Bz

>  <m_abbr>  (169)
Bz

>  <m_type>  (169)
aa

>  <m_subtype>  (169)
aa

>  <m_Rgroups>  (169)
None,OH,None,None

>  <m_RgroupIdx>  (169)
None,8,None,None

>  <m_attachmentPointIdx>  (169)
None,0,None,None

>  <natAnalog>  (169)
X

>  <pdbName>  (169)
BZL

$$$$

     RDKit          2D

  3  2  0  0  0  0  0  0  0  0999 V2000
    1.2375   -0.7145    0.0000 C   0  0  0  0  0  0  0  0  0  0  0  0
    1.9520   -1.1270    0.0000 C   0  0  0  0  0  0  0  0  0  0  0  0
    2.6664   -0.7145    0.0000 R#  0  0  0  0  0  0  0  0  0  0  0  0
  1  2  1  0
  2  3  1  0
M  RGP  1   3   2
V    3 *
M  END
>  <m_name>  (170)
N-Terminal ethyl

>  <symbol>  (170)
Et_

>  <m_abbr>  (170)
Et_

>  <m_type>  (170)
aa

>  <m_subtype>  (170)
aa

>  <m_Rgroups>  (170)
None,OH,None,None

>  <m_RgroupIdx>  (170)
None,2,None,None

>  <m_attachmentPointIdx>  (170)
None,1,None,None

>  <natAnalog>  (170)
X

>  <pdbName>  (170)
ETL

$$$$

     RDKit          2D

  2  1  0  0  0  0  0  0  0  0999 V2000
    0.8250    0.0000    0.0000 C   0  0  0  0  0  0  0  0  0  0  0  0
    0.0000    0.0000    0.0000 R#  0  0  0  0  0  0  0  0  0  0  0  0
  1  2  1  0
M  RGP  1   2   2
V    2 *
M  END
>  <m_name>  (171)
N-Terminal methyl

>  <symbol>  (171)
Me_

>  <m_abbr>  (171)
Me_

>  <m_type>  (171)
aa

>  <m_subtype>  (171)
aa

>  <m_Rgroups>  (171)
None,OH,None,None

>  <m_RgroupIdx>  (171)
None,1,None,None

>  <m_attachmentPointIdx>  (171)
None,0,None,None

>  <natAnalog>  (171)
X

>  <pdbName>  (171)
MG6

$$$$

     RDKit          2D

 16 16  0  0  0  0  0  0  0  0999 V2000
    0.0000    3.3000    0.0000 C   0  0  0  0  0  0  0  0  0  0  0  0
    0.0000    2.4750    0.0000 C   0  0  0  0  0  0  0  0  0  0  0  0
    0.7145    2.0625    0.0000 O   0  0  0  0  0  0  0  0  0  0  0  0
    0.7145    1.2375    0.0000 C   0  0  0  0  0  0  0  0  0  0  0  0
    1.4289    0.8250    0.0000 C   0  0  0  0  0  0  0  0  0  0  0  0
    1.4289    0.0000    0.0000 C   0  0  0  0  0  0  0  0  0  0  0  0
    0.7145   -0.4125    0.0000 C   0  0  0  0  0  0  0  0  0  0  0  0
    0.7145   -1.2375    0.0000 C   0  0  0  0  0  0  0  0  0  0  0  0
    1.4289   -1.6500    0.0000 C   0  0  0  0  0  0  0  0  0  0  0  0
    1.4289   -2.4750    0.0000 N   0  0  0  0  0  0  0  0  0  0  0  0
    2.1434   -1.2375    0.0000 C   0  0  0  0  0  0  0  0  0  0  0  0
    2.1434   -0.4125    0.0000 O   0  0  0  0  0  0  0  0  0  0  0  0
    0.0000    0.0000    0.0000 C   0  0  0  0  0  0  0  0  0  0  0  0
    0.0000    0.8250    0.0000 C   0  0  0  0  0  0  0  0  0  0  0  0
    2.1434   -2.8875    0.0000 R#  0  0  0  0  0  0  0  0  0  0  0  0
    2.8579   -1.6500    0.0000 R#  0  0  0  0  0  0  0  0  0  0  0  0
  1  2  1  0
  2  3  1  0
  3  4  1  0
  4  5  2  0
  5  6  1  0
  6  7  2  0
  7  8  1  0
  9  8  1  6
  9 10  1  0
 10 15  1  0
  9 11  1  0
 11 16  1  0
 11 12  2  0
  7 13  1  0
 13 14  2  0
  4 14  1  0
M  RGP  2  15   1  16   2
V   15 *
V   16 *
M  END
>  <m_name>  (172)
(2R)-2-amino-3-(4-ethoxyphenyl)propanoic acid

>  <symbol>  (172)
D_Tyr_Et

>  <m_abbr>  (172)
D_Tyr_Et

>  <m_type>  (172)
aa

>  <m_subtype>  (172)
non-natural

>  <m_Rgroups>  (172)
H,OH,None,None

>  <m_RgroupIdx>  (172)
14,15,None,None

>  <m_attachmentPointIdx>  (172)
9,10,None,None

>  <natAnalog>  (172)
Y

>  <pdbName>  (172)
DY0

$$$$

     RDKit          2D

 14 13  0  0  0  0  0  0  0  0999 V2000
   -0.1127   -3.1046    0.0000 C   0  0  0  0  0  0  0  0  0  0  0  0
    0.6974   -2.9487    0.0000 C   0  0  0  0  0  0  0  0  0  0  0  0
    0.9675   -2.1692    0.0000 O   0  0  0  0  0  0  0  0  0  0  0  0
    1.2375   -3.5724    0.0000 N   0  0  0  0  0  0  0  0  0  0  0  0
    2.0476   -3.4164    0.0000 C   0  0  0  0  0  0  0  0  0  0  0  0
    2.5877   -4.0401    0.0000 C   0  0  0  0  0  0  0  0  0  0  0  0
    3.3979   -3.8842    0.0000 C   0  0  0  0  0  0  0  0  0  0  0  0
    3.9379   -4.5078    0.0000 C   0  0  0  0  0  0  0  0  0  0  0  0
    4.7481   -4.3519    0.0000 C   0  0  0  0  0  0  0  0  0  0  0  0
    5.2882   -4.9755    0.0000 N   0  0  0  0  0  0  0  0  0  0  0  0
    5.0181   -3.5724    0.0000 C   0  0  0  0  0  0  0  0  0  0  0  0
    5.8283   -3.4164    0.0000 O   0  0  0  0  0  0  0  0  0  0  0  0
    6.0983   -4.8196    0.0000 R#  0  0  0  0  0  0  0  0  0  0  0  0
    4.4780   -2.9487    0.0000 R#  0  0  0  0  0  0  0  0  0  0  0  0
  1  2  1  0
  2  3  2  0
  2  4  1  0
  4  5  1  0
  5  6  1  0
  6  7  1  0
  7  8  1  0
  9  8  1  1
  9 10  1  0
 10 13  1  0
  9 11  1  0
 11 14  1  0
 11 12  2  0
M  RGP  2  13   1  14   2
V   13 *
V   14 *
M  END
>  <m_name>  (173)
(2S)-2-amino-6-acetamidohexanoic acid

>  <symbol>  (173)
Lys_Ac

>  <m_abbr>  (173)
Lys_Ac

>  <m_type>  (173)
aa

>  <m_subtype>  (173)
non-natural

>  <m_Rgroups>  (173)
H,OH,None,None

>  <m_RgroupIdx>  (173)
12,13,None,None

>  <m_attachmentPointIdx>  (173)
9,10,None,None

>  <natAnalog>  (173)
K

>  <pdbName>  (173)
LY6

$$$$

     RDKit          2D

  3  2  0  0  0  0  0  0  0  0999 V2000
    1.2375   -0.7145    0.0000 C   0  0  0  0  0  0  0  0  0  0  0  0
    1.9520   -1.1270    0.0000 O   0  0  0  0  0  0  0  0  0  0  0  0
    2.6664   -0.7145    0.0000 R#  0  0  0  0  0  0  0  0  0  0  0  0
  1  2  1  0
  2  3  1  0
M  RGP  1   3   2
V    3 *
M  END
>  <m_name>  (174)
N-Terminal methanol

>  <symbol>  (174)
OMe_

>  <m_abbr>  (174)
OMe_

>  <m_type>  (174)
aa

>  <m_subtype>  (174)
aa

>  <m_Rgroups>  (174)
None,OH,None,None

>  <m_RgroupIdx>  (174)
None,2,None,None

>  <m_attachmentPointIdx>  (174)
None,1,None,None

>  <natAnalog>  (174)
X

>  <pdbName>  (174)
OMQ

$$$$

     RDKit          2D

 11 10  0  0  0  0  0  0  0  0999 V2000
    0.8250   -1.4289    0.0000 C   0  0  0  0  0  0  0  0  0  0  0  0
    1.2375   -2.1434    0.0000 O   0  0  0  0  0  0  0  0  0  0  0  0
    2.0625   -2.1434    0.0000 C   0  0  0  0  0  0  0  0  0  0  0  0
    2.4750   -1.4289    0.0000 O   0  0  0  0  0  0  0  0  0  0  0  0
    2.4750   -2.8579    0.0000 C   0  0  0  0  0  0  0  0  0  0  0  0
    3.3000   -2.8579    0.0000 C   0  0  0  0  0  0  0  0  0  0  0  0
    3.7125   -3.5724    0.0000 N   0  0  0  0  0  0  0  0  0  0  0  0
    3.7125   -2.1434    0.0000 C   0  0  0  0  0  0  0  0  0  0  0  0
    4.5375   -2.1434    0.0000 O   0  0  0  0  0  0  0  0  0  0  0  0
    4.5375   -3.5724    0.0000 R#  0  0  0  0  0  0  0  0  0  0  0  0
    3.3000   -1.4289    0.0000 R#  0  0  0  0  0  0  0  0  0  0  0  0
  1  2  1  0
  2  3  1  0
  3  4  2  0
  3  5  1  0
  6  5  1  1
  6  7  1  0
  7 10  1  0
  6  8  1  0
  8 11  1  0
  8  9  2  0
M  RGP  2  10   1  11   2
V   10 *
V   11 *
M  END
>  <m_name>  (175)
(2S)-2-amino-4-methoxy-4-oxobutanoic acid

>  <symbol>  (175)
Asp_OMe

>  <m_abbr>  (175)
Asp_OMe

>  <m_type>  (175)
aa

>  <m_subtype>  (175)
non-natural

>  <m_Rgroups>  (175)
H,OH,None,None

>  <m_RgroupIdx>  (175)
9,10,None,None

>  <m_attachmentPointIdx>  (175)
6,7,None,None

>  <natAnalog>  (175)
D

>  <pdbName>  (175)
AGZ

$$$$

     RDKit          2D

 12 12  0  0  0  0  0  0  0  0999 V2000
    1.4289    2.4750    0.0000 C   0  0  0  0  0  0  0  0  0  0  0  0
    0.7145    2.0625    0.0000 N   0  0  0  0  0  0  0  0  0  0  0  0
    0.0000    2.4750    0.0000 C   0  0  0  0  0  0  0  0  0  0  0  0
    0.7145    1.2375    0.0000 C   0  0  0  0  0  0  0  0  0  0  0  0
    1.4289    0.8250    0.0000 C   0  0  0  0  0  0  0  0  0  0  0  0
    1.4289    0.0000    0.0000 C   0  0  0  0  0  0  0  0  0  0  0  0
    0.7145   -0.4125    0.0000 C   0  0  0  0  0  0  0  0  0  0  0  0
    0.0000    0.0000    0.0000 C   0  0  0  0  0  0  0  0  0  0  0  0
    0.0000    0.8250    0.0000 C   0  0  0  0  0  0  0  0  0  0  0  0
   -0.7145   -0.4125    0.0000 C   0  0  0  0  0  0  0  0  0  0  0  0
   -1.4289    0.0000    0.0000 O   0  0  0  0  0  0  0  0  0  0  0  0
   -0.7145   -1.2375    0.0000 R#  0  0  0  0  0  0  0  0  0  0  0  0
  1  2  1  0
  2  3  1  0
  2  4  1  0
  4  5  2  0
  5  6  1  0
  6  7  2  0
  7  8  1  0
  8  9  2  0
  4  9  1  0
  8 10  1  0
 10 12  1  0
 10 11  2  0
M  RGP  1  12   2
V   12 *
M  END
>  <m_name>  (176)
3-(dimethylamino)benzoic acid

>  <symbol>  (176)
NMe23Abz

>  <m_abbr>  (176)
NMe23Abz

>  <m_type>  (176)
aa

>  <m_subtype>  (176)
non-natural

>  <m_Rgroups>  (176)
None,OH,None,None

>  <m_RgroupIdx>  (176)
None,11,None,None

>  <m_attachmentPointIdx>  (176)
None,9,None,None

>  <natAnalog>  (176)
X

>  <pdbName>  (176)
NMV

$$$$

     RDKit          2D

 13 13  0  0  0  0  0  0  0  0999 V2000
    0.0000    3.3000    0.0000 N   0  0  0  0  0  0  0  0  0  0  0  0
    0.0000    2.4750    0.0000 C   0  0  0  0  0  0  0  0  0  0  0  0
    0.7145    2.0625    0.0000 C   0  0  0  0  0  0  0  0  0  0  0  0
    0.7145    1.2375    0.0000 C   0  0  0  0  0  0  0  0  0  0  0  0
    1.4289    0.8250    0.0000 C   0  0  0  0  0  0  0  0  0  0  0  0
    1.4289    0.0000    0.0000 C   0  0  0  0  0  0  0  0  0  0  0  0
    0.7145   -0.4125    0.0000 C   0  0  0  0  0  0  0  0  0  0  0  0
    0.0000    0.0000    0.0000 C   0  0  0  0  0  0  0  0  0  0  0  0
    0.0000    0.8250    0.0000 C   0  0  0  0  0  0  0  0  0  0  0  0
   -0.7145    2.0625    0.0000 C   0  0  0  0  0  0  0  0  0  0  0  0
   -1.4289    2.4750    0.0000 O   0  0  0  0  0  0  0  0  0  0  0  0
   -0.7145    3.7125    0.0000 R#  0  0  0  0  0  0  0  0  0  0  0  0
   -0.7145    1.2375    0.0000 R#  0  0  0  0  0  0  0  0  0  0  0  0
  1 12  1  0
  1  2  2  3
  2  3  1  0
  3  4  1  0
  4  5  2  0
  5  6  1  0
  6  7  2  0
  7  8  1  0
  8  9  2  0
  4  9  1  0
  2 10  1  0
 10 13  1  0
 10 11  2  0
M  RGP  2  12   1  13   2
V   12 *
V   13 *
M  END
>  <m_name>  (177)
2-amino-3-phenylprop-2-enoic acid

>  <symbol>  (177)
Phe_ab_dehydro

>  <m_abbr>  (177)
Phe_ab_dehydro

>  <m_type>  (177)
aa

>  <m_subtype>  (177)
non-natural

>  <m_Rgroups>  (177)
H,OH,None,None

>  <m_RgroupIdx>  (177)
11,12,None,None

>  <m_attachmentPointIdx>  (177)
0,9,None,None

>  <natAnalog>  (177)
F

>  <pdbName>  (177)
PJF

$$$$

     RDKit          2D

 13 12  0  0  0  0  0  0  0  0999 V2000
    1.0461    1.4289    0.0000 C   0  0  0  0  0  0  0  0  0  0  0  0
    1.7605    1.8414    0.0000 C   0  0  0  0  0  0  0  0  0  0  0  0
    1.7605    2.6664    0.0000 C   0  0  0  0  0  0  0  0  0  0  0  0
    2.4750    1.4289    0.0000 C   0  0  0  0  0  0  0  0  0  0  0  0
    3.1895    1.8414    0.0000 C   0  0  0  0  0  0  0  0  0  0  0  0
    3.1895    2.6664    0.0000 N   0  0  0  0  0  0  0  0  0  0  0  0
    3.9039    1.4289    0.0000 C   0  0  0  0  0  0  0  0  0  0  0  0
    3.9039    0.6039    0.0000 O   0  0  0  0  0  0  0  0  0  0  0  0
    4.6184    1.8414    0.0000 C   0  0  0  0  0  0  0  0  0  0  0  0
    5.3329    1.4289    0.0000 C   0  0  0  0  0  0  0  0  0  0  0  0
    5.3329    0.6039    0.0000 O   0  0  0  0  0  0  0  0  0  0  0  0
    3.9039    3.0789    0.0000 R#  0  0  0  0  0  0  0  0  0  0  0  0
    6.0474    1.8414    0.0000 R#  0  0  0  0  0  0  0  0  0  0  0  0
  1  2  1  0
  2  3  1  0
  2  4  1  0
  4  5  1  0
  5  6  1  0
  6 12  1  0
  5  7  1  0
  7  8  1  0
  7  9  1  0
  9 10  1  0
 10 13  1  0
 10 11  2  0
M  RGP  2  12   1  13   2
V   12 *
V   13 *
M  END
>  <m_name>  (178)
4-amino-3-hydroxy-6-methylheptanoic acid

>  <symbol>  (178)
Sta_3xi4xi

>  <m_abbr>  (178)
Sta_3xi4xi

>  <m_type>  (178)
aa

>  <m_subtype>  (178)
non-natural

>  <m_Rgroups>  (178)
H,OH,None,None

>  <m_RgroupIdx>  (178)
11,12,None,None

>  <m_attachmentPointIdx>  (178)
5,9,None,None

>  <natAnalog>  (178)
X

>  <pdbName>  (178)
ST0

$$$$

     RDKit          2D

 15 15  0  0  0  0  0  0  0  0999 V2000
    0.0000    2.4750    0.0000 C   0  0  0  0  0  0  0  0  0  0  0  0
    0.7145    2.0625    0.0000 O   0  0  0  0  0  0  0  0  0  0  0  0
    0.7145    1.2375    0.0000 C   0  0  0  0  0  0  0  0  0  0  0  0
    1.4289    0.8250    0.0000 C   0  0  0  0  0  0  0  0  0  0  0  0
    1.4289    0.0000    0.0000 C   0  0  0  0  0  0  0  0  0  0  0  0
    0.7145   -0.4125    0.0000 C   0  0  0  0  0  0  0  0  0  0  0  0
    0.7145   -1.2375    0.0000 C   0  0  0  0  0  0  0  0  0  0  0  0
    0.0000   -1.6500    0.0000 C   0  0  0  0  0  0  0  0  0  0  0  0
    0.0000   -2.4750    0.0000 N   0  0  0  0  0  0  0  0  0  0  0  0
   -0.7145   -1.2375    0.0000 C   0  0  0  0  0  0  0  0  0  0  0  0
   -0.7145   -0.4125    0.0000 O   0  0  0  0  0  0  0  0  0  0  0  0
    0.0000    0.0000    0.0000 C   0  0  0  0  0  0  0  0  0  0  0  0
    0.0000    0.8250    0.0000 C   0  0  0  0  0  0  0  0  0  0  0  0
    0.7145   -2.8875    0.0000 R#  0  0  0  0  0  0  0  0  0  0  0  0
   -1.4289   -1.6500    0.0000 R#  0  0  0  0  0  0  0  0  0  0  0  0
  1  2  1  0
  2  3  1  0
  3  4  2  0
  4  5  1  0
  5  6  2  0
  7  6  1  0
  7  8  2  3
  8  9  1  0
  9 14  1  0
  8 10  1  0
 10 15  1  0
 10 11  2  0
  6 12  1  0
 12 13  2  0
  3 13  1  0
M  RGP  2  14   1  15   2
V   14 *
V   15 *
M  END
>  <m_name>  (179)
2-amino-3-(4-methoxyphenyl)prop-2-enoic acid

>  <symbol>  (179)
Tyr_ab_dehydroMe

>  <m_abbr>  (179)
Tyr_ab_dehydroMe

>  <m_type>  (179)
aa

>  <m_subtype>  (179)
non-natural

>  <m_Rgroups>  (179)
H,OH,None,None

>  <m_RgroupIdx>  (179)
13,14,None,None

>  <m_attachmentPointIdx>  (179)
8,9,None,None

>  <natAnalog>  (179)
Y

>  <pdbName>  (179)
TY6

$$$$

     RDKit          2D

 16 16  0  0  0  0  0  0  0  0999 V2000
    2.9684   -2.2836    0.0000 O   0  0  0  0  0  0  0  0  0  0  0  0
    3.3809   -2.9980    0.0000 C   0  0  0  0  0  0  0  0  0  0  0  0
    2.9684   -3.7125    0.0000 C   0  0  0  0  0  0  0  0  0  0  0  0
    2.1434   -3.7125    0.0000 C   0  0  0  0  0  0  0  0  0  0  0  0
    1.7309   -2.9980    0.0000 O   0  0  0  0  0  0  0  0  0  0  0  0
    4.2059   -2.9980    0.0000 C   0  0  0  0  0  0  0  0  0  0  0  0
    4.6184   -2.2836    0.0000 C   0  0  0  0  0  0  0  0  0  0  0  0
    5.4434   -2.2836    0.0000 C   0  0  0  0  0  0  0  0  0  0  0  0
    5.8559   -1.5691    0.0000 C   0  0  0  0  0  0  0  0  0  0  0  0
    6.6809   -1.5691    0.0000 C   0  0  0  0  0  0  0  0  0  0  0  0
    7.0934   -2.2836    0.0000 C   0  0  0  0  0  0  0  0  0  0  0  0
    6.6809   -2.9980    0.0000 C   0  0  0  0  0  0  0  0  0  0  0  0
    5.8559   -2.9980    0.0000 C   0  0  0  0  0  0  0  0  0  0  0  0
    4.6184   -3.7125    0.0000 N   0  0  0  0  0  0  0  0  0  0  0  0
    1.7309   -4.4270    0.0000 R#  0  0  0  0  0  0  0  0  0  0  0  0
    4.2059   -4.4270    0.0000 R#  0  0  0  0  0  0  0  0  0  0  0  0
  2  1  1  1
  2  3  1  0
  3  4  1  0
  4 15  1  0
  4  5  2  0
  2  6  1  0
  6  7  1  6
  7  8  1  0
  8  9  2  0
  9 10  1  0
 10 11  2  0
 11 12  1  0
 12 13  2  0
  8 13  1  0
  6 14  1  0
 14 16  1  0
M  RGP  2  15   2  16   1
V   15 *
V   16 *
M  END
>  <m_name>  (180)
gamma-amino-beta-hydroxybenzenepentanoic acid

>  <symbol>  (180)
App

>  <m_abbr>  (180)
App

>  <m_type>  (180)
aa

>  <m_subtype>  (180)
non-natural

>  <m_Rgroups>  (180)
H,OH,None,None

>  <m_RgroupIdx>  (180)
15,14,None,None

>  <m_attachmentPointIdx>  (180)
13,3,None,None

>  <natAnalog>  (180)
X

>  <pdbName>  (180)
AHV

$$$$

     RDKit          2D

 16 16  0  0  0  0  0  0  0  0999 V2000
    2.8579    0.0000    0.0000 O   0  0  0  0  0  0  0  0  0  0  0  0
    2.8579   -0.8250    0.0000 C   0  0  0  0  0  0  0  0  0  0  0  0
    2.1434   -1.2375    0.0000 C   0  0  0  0  0  0  0  0  0  0  0  0
    1.4289   -0.8250    0.0000 C   0  0  0  0  0  0  0  0  0  0  0  0
    0.7145   -1.2375    0.0000 C   0  0  0  0  0  0  0  0  0  0  0  0
    0.0000   -0.8250    0.0000 C   0  0  0  0  0  0  0  0  0  0  0  0
   -0.7145   -1.2375    0.0000 C   0  0  0  0  0  0  0  0  0  0  0  0
   -1.4289   -0.8250    0.0000 C   0  0  0  0  0  0  0  0  0  0  0  0
   -1.4289    0.0000    0.0000 C   0  0  0  0  0  0  0  0  0  0  0  0
   -0.7145    0.4125    0.0000 C   0  0  0  0  0  0  0  0  0  0  0  0
    0.0000    0.0000    0.0000 C   0  0  0  0  0  0  0  0  0  0  0  0
    2.1434   -2.0625    0.0000 N   0  0  0  0  0  0  0  0  0  0  0  0
    3.5724   -1.2375    0.0000 C   0  0  0  0  0  0  0  0  0  0  0  0
    3.5724   -2.0625    0.0000 O   0  0  0  0  0  0  0  0  0  0  0  0
    1.4289   -2.4750    0.0000 R#  0  0  0  0  0  0  0  0  0  0  0  0
    4.2868   -0.8250    0.0000 R#  0  0  0  0  0  0  0  0  0  0  0  0
  2  1  1  1
  2  3  1  0
  3  4  1  1
  4  5  1  0
  5  6  1  0
  6  7  1  0
  7  8  1  0
  8  9  1  0
  9 10  1  0
 10 11  1  0
  6 11  1  0
  3 12  1  0
 12 15  1  0
  2 13  1  0
 13 16  1  0
 13 14  2  0
M  RGP  2  15   1  16   2
V   15 *
V   16 *
M  END
>  <m_name>  (181)
(2R,3S)-3-amino-5-cyclohexyl-2-hydroxypentanoic acid

>  <symbol>  (181)
aa

>  <m_abbr>  (181)
aa

>  <m_type>  (181)
aa

>  <m_subtype>  (181)
non-natural

>  <m_Rgroups>  (181)
H,OH,None,None

>  <m_RgroupIdx>  (181)
14,15,None,None

>  <m_attachmentPointIdx>  (181)
11,12,None,None

>  <natAnalog>  (181)
X

>  <pdbName>  (181)
CCF

$$$$

     RDKit          2D

 11 10  0  0  0  0  0  0  0  0999 V2000
    0.0000   -1.4289    0.0000 C   0  0  0  0  0  0  0  0  0  0  0  0
    0.8250   -1.4289    0.0000 C   0  0  0  0  0  0  0  0  0  0  0  0
    1.2375   -2.1434    0.0000 S   0  0  0  0  0  0  0  0  0  0  0  0
    2.0625   -2.1434    0.0000 S   0  0  0  0  0  0  0  0  0  0  0  0
    2.4750   -2.8579    0.0000 C   0  0  0  0  0  0  0  0  0  0  0  0
    3.3000   -2.8579    0.0000 C   0  0  0  0  0  0  0  0  0  0  0  0
    3.7125   -3.5724    0.0000 N   0  0  0  0  0  0  0  0  0  0  0  0
    3.7125   -2.1434    0.0000 C   0  0  0  0  0  0  0  0  0  0  0  0
    4.5375   -2.1434    0.0000 O   0  0  0  0  0  0  0  0  0  0  0  0
    4.5375   -3.5724    0.0000 R#  0  0  0  0  0  0  0  0  0  0  0  0
    3.3000   -1.4289    0.0000 R#  0  0  0  0  0  0  0  0  0  0  0  0
  1  2  1  0
  2  3  1  0
  3  4  1  0
  4  5  1  0
  6  5  1  1
  6  7  1  0
  7 10  1  0
  6  8  1  0
  8 11  1  0
  8  9  2  0
M  RGP  2  10   1  11   2
V   10 *
V   11 *
M  END
>  <m_name>  (182)
(2R)-2-amino-3-(ethyldisulfanyl)propanoic acid

>  <symbol>  (182)
Cys_SEt

>  <m_abbr>  (182)
Cys_SEt

>  <m_type>  (182)
aa

>  <m_subtype>  (182)
non-natural

>  <m_Rgroups>  (182)
H,OH,None,None

>  <m_RgroupIdx>  (182)
9,10,None,None

>  <m_attachmentPointIdx>  (182)
6,7,None,None

>  <natAnalog>  (182)
C

>  <pdbName>  (182)
CY5

$$$$

     RDKit          2D

 15 14  0  0  0  0  0  0  0  0999 V2000
    7.2849    3.3809    0.0000 N   0  0  0  0  0  0  0  0  0  0  0  0
    7.2849    2.5559    0.0000 C   0  0  0  0  0  0  0  0  0  0  0  0
    6.5704    2.1434    0.0000 C   0  0  0  0  0  0  0  0  0  0  0  0
    5.8559    2.5559    0.0000 C   0  0  0  0  0  0  0  0  0  0  0  0
    5.1414    2.1434    0.0000 C   0  0  0  0  0  0  0  0  0  0  0  0
    4.4270    2.5559    0.0000 C   0  0  0  0  0  0  0  0  0  0  0  0
    3.7125    2.1434    0.0000 C   0  0  0  0  0  0  0  0  0  0  0  0
    2.9980    2.5559    0.0000 N   0  0  0  0  0  0  0  0  0  0  0  0
    3.7125    1.3184    0.0000 C   0  0  0  0  0  0  0  0  0  0  0  0
    2.9980    0.9059    0.0000 O   0  0  0  0  0  0  0  0  0  0  0  0
    7.9993    2.1434    0.0000 C   0  0  0  0  0  0  0  0  0  0  0  0
    8.7138    2.5559    0.0000 O   0  0  0  0  0  0  0  0  0  0  0  0
    7.9993    1.3184    0.0000 O   0  0  0  0  0  0  0  0  0  0  0  0
    2.2836    2.1434    0.0000 R#  0  0  0  0  0  0  0  0  0  0  0  0
    4.4270    0.9059    0.0000 R#  0  0  0  0  0  0  0  0  0  0  0  0
  1  2  1  0
  2  3  1  0
  3  4  1  0
  4  5  1  0
  5  6  1  0
  7  6  1  1
  7  8  1  0
  8 14  1  0
  7  9  1  0
  9 15  1  0
  9 10  2  0
  2 11  1  0
 11 12  1  0
 11 13  2  0
M  RGP  2  14   1  15   2
V   14 *
V   15 *
M  END
>  <m_name>  (183)
2,7-Diaminosuberic acid

>  <symbol>  (183)
Dsu

>  <m_abbr>  (183)
Dsu

>  <m_type>  (183)
aa

>  <m_subtype>  (183)
non-natural

>  <m_Rgroups>  (183)
H,OH,None,None

>  <m_RgroupIdx>  (183)
13,14,None,None

>  <m_attachmentPointIdx>  (183)
7,8,None,None

>  <natAnalog>  (183)
X

>  <pdbName>  (183)
DZQ

$$$$

     RDKit          2D

 20 20  0  0  0  0  0  0  0  0999 V2000
    6.2684    8.8243    0.0000 N   0  0  0  0  0  0  0  0  0  0  0  0
    5.8559    8.1099    0.0000 C   0  0  0  0  0  0  0  0  0  0  0  0
    6.2684    7.3954    0.0000 C   0  0  0  0  0  0  0  0  0  0  0  0
    5.8559    6.6809    0.0000 C   0  0  0  0  0  0  0  0  0  0  0  0
    5.0309    6.6809    0.0000 N   0  0  0  0  0  0  0  0  0  0  0  0
    4.6184    5.9664    0.0000 C   0  0  0  0  0  0  0  0  0  0  0  0
    3.7934    5.9664    0.0000 C   0  0  0  0  0  0  0  0  0  0  0  0
    3.3809    6.6809    0.0000 O   0  0  0  0  0  0  0  0  0  0  0  0
    3.3809    5.2520    0.0000 N   0  0  0  0  0  0  0  0  0  0  0  0
    2.5559    5.2520    0.0000 C   0  0  0  0  0  0  0  0  0  0  0  0
    2.1434    4.5375    0.0000 C   0  0  0  0  0  0  0  0  0  0  0  0
    1.3184    4.5375    0.0000 N   0  0  0  0  0  0  0  0  0  0  0  0
    3.7934    4.5375    0.0000 C   0  0  0  0  0  0  0  0  0  0  0  0
    4.6184    4.5375    0.0000 C   0  0  0  0  0  0  0  0  0  0  0  0
    5.0309    3.8230    0.0000 O   0  0  0  0  0  0  0  0  0  0  0  0
    4.6184    7.3954    0.0000 C   0  0  0  0  0  0  0  0  0  0  0  0
    3.7934    7.3954    0.0000 O   0  0  0  0  0  0  0  0  0  0  0  0
    5.0309    8.1099    0.0000 N   0  0  0  0  0  0  0  0  0  0  0  0
    0.9059    3.8230    0.0000 R#  0  0  0  0  0  0  0  0  0  0  0  0
    5.0309    5.2520    0.0000 R#  0  0  0  0  0  0  0  0  0  0  0  0
  1  2  1  0
  2  3  1  0
  3  4  2  0
  4  5  1  0
  5  6  1  0
  6  7  1  0
  7  8  2  0
  7  9  1  0
  9 10  1  0
 10 11  1  0
 11 12  1  0
 12 19  1  0
  9 13  1  0
 13 14  1  0
 14 20  1  0
 14 15  2  0
  5 16  1  0
 16 17  2  0
 16 18  1  0
  2 18  2  0
M  RGP  2  19   1  20   2
V   19 *
V   20 *
M  END
>  <m_name>  (184)
PNA Cytosine

>  <symbol>  (184)
pnC

>  <m_abbr>  (184)
pnC

>  <m_type>  (184)
aa

>  <m_subtype>  (184)
non-natural

>  <m_Rgroups>  (184)
H,OH,None,None

>  <m_RgroupIdx>  (184)
18,19,None,None

>  <m_attachmentPointIdx>  (184)
11,13,None,None

>  <natAnalog>  (184)
X

>  <pdbName>  (184)
PN9

$$$$

     RDKit          2D

 23 24  0  0  0  0  0  0  0  0999 V2000
    1.5807    3.4692    0.0000 N   0  0  0  0  0  0  0  0  0  0  0  0
    0.9676    4.0212    0.0000 C   0  0  0  0  0  0  0  0  0  0  0  0
    0.1830    3.7663    0.0000 N   0  0  0  0  0  0  0  0  0  0  0  0
   -0.4301    4.3183    0.0000 C   0  0  0  0  0  0  0  0  0  0  0  0
   -1.2506    4.2321    0.0000 N   0  0  0  0  0  0  0  0  0  0  0  0
   -1.6631    3.5176    0.0000 C   0  0  0  0  0  0  0  0  0  0  0  0
   -2.4881    3.5176    0.0000 C   0  0  0  0  0  0  0  0  0  0  0  0
   -2.9006    4.2321    0.0000 O   0  0  0  0  0  0  0  0  0  0  0  0
   -2.9006    2.8031    0.0000 N   0  0  0  0  0  0  0  0  0  0  0  0
   -3.7256    2.8031    0.0000 C   0  0  0  0  0  0  0  0  0  0  0  0
   -4.1381    2.0886    0.0000 C   0  0  0  0  0  0  0  0  0  0  0  0
   -4.9631    2.0886    0.0000 N   0  0  0  0  0  0  0  0  0  0  0  0
   -2.4881    2.0886    0.0000 C   0  0  0  0  0  0  0  0  0  0  0  0
   -1.6631    2.0886    0.0000 C   0  0  0  0  0  0  0  0  0  0  0  0
   -1.2506    1.3742    0.0000 O   0  0  0  0  0  0  0  0  0  0  0  0
   -1.5861    4.9857    0.0000 C   0  0  0  0  0  0  0  0  0  0  0  0
   -0.9730    5.5378    0.0000 N   0  0  0  0  0  0  0  0  0  0  0  0
   -0.2586    5.1253    0.0000 C   0  0  0  0  0  0  0  0  0  0  0  0
    0.5261    5.3802    0.0000 C   0  0  0  0  0  0  0  0  0  0  0  0
    0.6976    6.1872    0.0000 O   0  0  0  0  0  0  0  0  0  0  0  0
    1.1391    4.8282    0.0000 N   0  0  0  0  0  0  0  0  0  0  0  0
   -5.3756    1.3742    0.0000 R#  0  0  0  0  0  0  0  0  0  0  0  0
   -1.2506    2.8031    0.0000 R#  0  0  0  0  0  0  0  0  0  0  0  0
  1  2  1  0
  2  3  2  0
  3  4  1  0
  4  5  1  0
  5  6  1  0
  6  7  1  0
  7  8  2  0
  7  9  1  0
  9 10  1  0
 10 11  1  0
 11 12  1  0
 12 22  1  0
  9 13  1  0
 13 14  1  0
 14 23  1  0
 14 15  2  0
  5 16  1  0
 16 17  2  0
 17 18  1  0
  4 18  2  0
 18 19  1  0
 19 20  2  0
 19 21  1  0
  2 21  1  0
M  RGP  2  22   1  23   2
V   22 *
V   23 *
M  END
>  <m_name>  (185)
PNA Guanine

>  <symbol>  (185)
pnG

>  <m_abbr>  (185)
pnG

>  <m_type>  (185)
aa

>  <m_subtype>  (185)
non-natural

>  <m_Rgroups>  (185)
H,OH,None,None

>  <m_RgroupIdx>  (185)
21,22,None,None

>  <m_attachmentPointIdx>  (185)
11,13,None,None

>  <natAnalog>  (185)
X

>  <pdbName>  (185)
PJI

$$$$

     RDKit          2D

 22 24  0  0  0  0  0  0  0  0999 V2000
   -1.4289   -2.4750    0.0000 N   0  0  0  0  0  0  0  0  0  0  0  0
   -1.4289   -1.6500    0.0000 C   0  0  0  0  0  0  0  0  0  0  0  0
   -0.7145   -1.2375    0.0000 C   0  0  0  0  0  0  0  0  0  0  0  0
    0.0000   -1.6500    0.0000 N   0  0  0  0  0  0  0  0  0  0  0  0
    0.0000   -2.4750    0.0000 C   0  0  0  0  0  0  0  0  0  0  0  0
   -0.7145   -2.8875    0.0000 C   0  0  0  0  0  0  0  0  0  0  0  0
    0.7145   -1.2375    0.0000 C   0  0  0  0  0  0  0  0  0  0  0  0
    0.7145   -0.4125    0.0000 C   0  0  0  0  0  0  0  0  0  0  0  0
    1.4289    0.0000    0.0000 C   0  0  0  0  0  0  0  0  0  0  0  0
    2.1434   -0.4125    0.0000 C   0  0  0  0  0  0  0  0  0  0  0  0
    2.8579    0.0000    0.0000 C   0  0  0  0  0  0  0  0  0  0  0  0
    3.5724   -0.4125    0.0000 C   0  0  0  0  0  0  0  0  0  0  0  0
    3.5724   -1.2375    0.0000 N   0  0  0  0  0  0  0  0  0  0  0  0
    4.2868   -1.6500    0.0000 C   0  0  0  0  0  0  0  0  0  0  0  0
    4.2868   -2.4750    0.0000 C   0  0  0  0  0  0  0  0  0  0  0  0
    3.5724   -2.8875    0.0000 O   0  0  0  0  0  0  0  0  0  0  0  0
    2.8579   -1.6500    0.0000 C   0  0  0  0  0  0  0  0  0  0  0  0
    2.8579   -2.4750    0.0000 O   0  0  0  0  0  0  0  0  0  0  0  0
    2.1434   -1.2375    0.0000 C   0  0  0  0  0  0  0  0  0  0  0  0
    1.4289   -1.6500    0.0000 C   0  0  0  0  0  0  0  0  0  0  0  0
   -2.1434   -2.8875    0.0000 R#  0  0  0  0  0  0  0  0  0  0  0  0
    5.0013   -2.8875    0.0000 R#  0  0  0  0  0  0  0  0  0  0  0  0
 21  1  1  0
  1  2  1  0
  2  3  1  0
  3  4  1  0
  4  5  1  0
  5  6  1  0
  1  6  1  0
  4  7  1  0
  7  8  2  0
  8  9  1  0
  9 10  2  0
 10 11  1  0
 11 12  2  0
 12 13  1  0
 13 14  1  0
 14 15  1  0
 15 22  1  0
 15 16  2  0
 13 17  1  0
 17 18  2  0
 17 19  1  0
 10 19  1  0
 19 20  2  0
  7 20  1  0
M  RGP  2  21   1  22   2
V   21 *
V   22 *
M  END
>  <m_name>  (186)
2-[1-oxo-7-(piperazin-1-yl)-1,2-dihydroisoquinolin-2-yl]acetic acid

>  <symbol>  (186)
Pqa

>  <m_abbr>  (186)
Pqa

>  <m_type>  (186)
aa

>  <m_subtype>  (186)
non-natural

>  <m_Rgroups>  (186)
H,OH,None,None

>  <m_RgroupIdx>  (186)
20,21,None,None

>  <m_attachmentPointIdx>  (186)
0,14,None,None

>  <natAnalog>  (186)
X

>  <pdbName>  (186)
PQF

$$$$

     RDKit          2D

 11 11  0  0  0  0  0  0  0  0999 V2000
    0.5678    1.9393    0.0000 C   0  0  0  0  0  0  0  0  0  0  0  0
    0.5678    1.1143    0.0000 C   0  0  0  0  0  0  0  0  0  0  0  0
    1.2352    0.6294    0.0000 C   0  0  0  0  0  0  0  0  0  0  0  0
    0.9803   -0.1553    0.0000 N   0  0  0  0  0  0  0  0  0  0  0  0
    0.1553   -0.1553    0.0000 C   0  0  0  0  0  0  0  0  0  0  0  0
   -0.0997    0.6294    0.0000 C   0  0  0  0  0  0  0  0  0  0  0  0
   -0.8843    0.8843    0.0000 O   0  0  0  0  0  0  0  0  0  0  0  0
   -0.3297   -0.8227    0.0000 C   0  0  0  0  0  0  0  0  0  0  0  0
   -1.1501   -0.7365    0.0000 O   0  0  0  0  0  0  0  0  0  0  0  0
    1.4652   -0.8227    0.0000 R#  0  0  0  0  0  0  0  0  0  0  0  0
    0.0059   -1.5764    0.0000 R#  0  0  0  0  0  0  0  0  0  0  0  0
  1  2  1  0
  2  3  1  0
  3  4  1  0
  4 10  1  0
  5  4  1  0
  5  6  1  0
  2  6  1  0
  6  7  1  0
  5  8  1  6
  8 11  1  0
  8  9  2  0
M  RGP  2  10   1  11   2
V   10 *
V   11 *
M  END
>  <m_name>  (187)
(2S)-3-hydroxy-4-methylpyrrolidine-2-carboxylic acid

>  <symbol>  (187)
Pro_4Me3OH

>  <m_abbr>  (187)
Pro_4Me3OH

>  <m_type>  (187)
aa

>  <m_subtype>  (187)
non-natural

>  <m_Rgroups>  (187)
H,OH,None,None

>  <m_RgroupIdx>  (187)
9,10,None,None

>  <m_attachmentPointIdx>  (187)
3,7,None,None

>  <natAnalog>  (187)
P

>  <pdbName>  (187)
PRG

$$$$

     RDKit          2D

  6  5  0  0  0  0  0  0  0  0999 V2000
    0.8250   -1.4289    0.0000 N   0  0  0  0  0  0  0  0  0  0  0  0
    1.2375   -0.7145    0.0000 C   0  0  0  0  0  0  0  0  0  0  0  0
    2.0625   -0.7145    0.0000 C   0  0  0  0  0  0  0  0  0  0  0  0
    2.4750   -1.4289    0.0000 O   0  0  0  0  0  0  0  0  0  0  0  0
    0.8250    0.0000    0.0000 C   0  0  0  0  0  0  0  0  0  0  0  0
    0.0000    0.0000    0.0000 R#  0  0  0  0  0  0  0  0  0  0  0  0
  2  1  1  6
  2  3  1  0
  3  4  1  0
  2  5  1  0
  5  6  1  0
M  RGP  1   6   2
V    6 *
M  END
>  <m_name>  (188)
(2R)-2-aminopropan-1-ol

>  <symbol>  (188)
D_Ala_ol

>  <m_abbr>  (188)
D_Ala_ol

>  <m_type>  (188)
aa

>  <m_subtype>  (188)
non-natural

>  <m_Rgroups>  (188)
None,OH,None,None

>  <m_RgroupIdx>  (188)
None,5,None,None

>  <m_attachmentPointIdx>  (188)
None,4,None,None

>  <natAnalog>  (188)
A

>  <pdbName>  (188)
D0D

$$$$

     RDKit          2D

 11 11  0  0  0  0  0  0  0  0999 V2000
   -0.3583    1.0310    0.0000 N   0  0  0  0  0  0  0  0  0  0  0  0
   -0.3577    0.2060    0.0000 C   0  0  0  0  0  0  0  0  0  0  0  0
   -1.0718   -0.2071    0.0000 C   0  0  0  0  0  0  0  0  0  0  0  0
   -1.7866    0.2048    0.0000 O   0  0  0  0  0  0  0  0  0  0  0  0
    0.3570   -0.2060    0.0000 C   0  0  0  0  0  0  0  0  0  0  0  0
    0.3577   -1.0310    0.0000 C   0  0  0  0  0  0  0  0  0  0  0  0
    1.0724   -1.4428    0.0000 C   0  0  0  0  0  0  0  0  0  0  0  0
    1.7866   -1.0298    0.0000 C   0  0  0  0  0  0  0  0  0  0  0  0
    1.7859   -0.2048    0.0000 C   0  0  0  0  0  0  0  0  0  0  0  0
    1.0711    0.2071    0.0000 C   0  0  0  0  0  0  0  0  0  0  0  0
   -1.0731    1.4428    0.0000 R#  0  0  0  0  0  0  0  0  0  0  0  0
  1  2  1  0
  2  3  1  0
  3  4  1  0
  2  5  1  0
  5  6  2  0
  6  7  1  0
  7  8  2  0
  8  9  1  0
  9 10  2  0
 10  5  1  0
 11  1  1  0
M  RGP  1  11   1
V   11 *
M  END
>  <m_name>  (189)
2-amino-2-methylpropan-1-ol

>  <symbol>  (189)
D_Phg_ol

>  <m_abbr>  (189)
D_Phg_ol

>  <m_type>  (189)
aa

>  <m_subtype>  (189)
non-natural

>  <m_Rgroups>  (189)
H,None,None,None

>  <m_RgroupIdx>  (189)
10,None,None,None

>  <m_attachmentPointIdx>  (189)
0,None,None,None

>  <natAnalog>  (189)
G

>  <pdbName>  (189)
D0I

$$$$

     RDKit          2D

  8  7  0  0  0  0  0  0  0  0999 V2000
    2.4750    0.0000    0.0000 C   0  0  0  0  0  0  0  0  0  0  0  0
    2.0625    0.7145    0.0000 C   0  0  0  0  0  0  0  0  0  0  0  0
    2.4750    1.4289    0.0000 O   0  0  0  0  0  0  0  0  0  0  0  0
    1.2375    0.7145    0.0000 C   0  0  0  0  0  0  0  0  0  0  0  0
    0.8250    1.4289    0.0000 C   0  0  0  0  0  0  0  0  0  0  0  0
    0.0000    1.4289    0.0000 O   0  0  0  0  0  0  0  0  0  0  0  0
    0.8250    0.0000    0.0000 N   0  0  0  0  0  0  0  0  0  0  0  0
    0.0000    0.0000    0.0000 R#  0  0  0  0  0  0  0  0  0  0  0  0
  2  1  1  6
  2  3  1  0
  2  4  1  0
  4  5  1  6
  5  6  1  0
  4  7  1  0
  7  8  1  0
M  RGP  1   8   1
V    8 *
M  END
>  <m_name>  (190)
(2R,3R)-2-aminobutane-1,3-diol

>  <symbol>  (190)
D_Thr_ol

>  <m_abbr>  (190)
D_Thr_ol

>  <m_type>  (190)
aa

>  <m_subtype>  (190)
non-natural

>  <m_Rgroups>  (190)
H,None,None,None

>  <m_RgroupIdx>  (190)
7,None,None,None

>  <m_attachmentPointIdx>  (190)
6,None,None,None

>  <natAnalog>  (190)
T

>  <pdbName>  (190)
D06

$$$$

     RDKit          2D

  4  3  0  0  0  0  0  0  0  0999 V2000
    2.0625   -0.7145    0.0000 O   0  0  0  0  0  0  0  0  0  0  0  0
    1.2375   -0.7145    0.0000 C   0  0  0  0  0  0  0  0  0  0  0  0
    0.8250    0.0000    0.0000 N   0  0  0  0  0  0  0  0  0  0  0  0
    0.0000    0.0000    0.0000 R#  0  0  0  0  0  0  0  0  0  0  0  0
  1  2  1  0
  2  3  1  0
  3  4  1  0
M  RGP  1   4   1
V    4 *
M  END
>  <m_name>  (191)
aminomethanol

>  <symbol>  (191)
Gly_ol

>  <m_abbr>  (191)
Gly_ol

>  <m_type>  (191)
aa

>  <m_subtype>  (191)
non-natural

>  <m_Rgroups>  (191)
H,None,None,None

>  <m_RgroupIdx>  (191)
3,None,None,None

>  <m_attachmentPointIdx>  (191)
2,None,None,None

>  <natAnalog>  (191)
G

>  <pdbName>  (191)
GA1

$$$$

     RDKit          2D

  6  5  0  0  0  0  0  0  0  0999 V2000
    0.8250   -1.4289    0.0000 C   0  0  0  0  0  0  0  0  0  0  0  0
    1.2375   -0.7145    0.0000 C   0  0  0  0  0  0  0  0  0  0  0  0
    2.0625   -0.7145    0.0000 C   0  0  0  0  0  0  0  0  0  0  0  0
    2.4750   -1.4289    0.0000 O   0  0  0  0  0  0  0  0  0  0  0  0
    0.8250    0.0000    0.0000 N   0  0  0  0  0  0  0  0  0  0  0  0
    0.0000    0.0000    0.0000 R#  0  0  0  0  0  0  0  0  0  0  0  0
  2  1  1  6
  2  3  1  0
  3  4  1  0
  2  5  1  0
  5  6  1  0
M  RGP  1   6   1
V    6 *
M  END
>  <m_name>  (192)
(2S)-2-aminopropan-1-ol

>  <symbol>  (192)
Ala_ol

>  <m_abbr>  (192)
Ala_ol

>  <m_type>  (192)
aa

>  <m_subtype>  (192)
non-natural

>  <m_Rgroups>  (192)
H,None,None,None

>  <m_RgroupIdx>  (192)
5,None,None,None

>  <m_attachmentPointIdx>  (192)
4,None,None,None

>  <natAnalog>  (192)
A

>  <pdbName>  (192)
AH5

$$$$

     RDKit          2D

 10  9  0  0  0  0  0  0  0  0999 V2000
    0.0000   -1.4289    0.0000 N   0  0  0  0  0  0  0  0  0  0  0  0
    0.8250   -1.4289    0.0000 C   0  0  0  0  0  0  0  0  0  0  0  0
    1.2375   -2.1434    0.0000 C   0  0  0  0  0  0  0  0  0  0  0  0
    2.0625   -2.1434    0.0000 C   0  0  0  0  0  0  0  0  0  0  0  0
    2.4750   -2.8579    0.0000 C   0  0  0  0  0  0  0  0  0  0  0  0
    3.3000   -2.8579    0.0000 C   0  0  0  0  0  0  0  0  0  0  0  0
    3.7125   -3.5724    0.0000 C   0  0  0  0  0  0  0  0  0  0  0  0
    4.5375   -3.5724    0.0000 O   0  0  0  0  0  0  0  0  0  0  0  0
    3.7125   -2.1434    0.0000 N   0  0  0  0  0  0  0  0  0  0  0  0
    4.5375   -2.1434    0.0000 R#  0  0  0  0  0  0  0  0  0  0  0  0
  1  2  1  0
  2  3  1  0
  3  4  1  0
  4  5  1  0
  6  5  1  6
  6  7  1  0
  7  8  1  0
  6  9  1  0
  9 10  1  0
M  RGP  1  10   1
V   10 *
M  END
>  <m_name>  (193)
(2S)-2,6-diaminohexan-1-ol

>  <symbol>  (193)
Lys_ol

>  <m_abbr>  (193)
Lys_ol

>  <m_type>  (193)
aa

>  <m_subtype>  (193)
non-natural

>  <m_Rgroups>  (193)
H,None,None,None

>  <m_RgroupIdx>  (193)
9,None,None,None

>  <m_attachmentPointIdx>  (193)
8,None,None,None

>  <natAnalog>  (193)
K

>  <pdbName>  (193)
LAW

$$$$

     RDKit          2D

 11 11  0  0  0  0  0  0  0  0999 V2000
    0.0000    3.3000    0.0000 O   0  0  0  0  0  0  0  0  0  0  0  0
    0.0000    2.4750    0.0000 C   0  0  0  0  0  0  0  0  0  0  0  0
    0.7145    2.0625    0.0000 C   0  0  0  0  0  0  0  0  0  0  0  0
    1.4289    2.4750    0.0000 N   0  0  0  0  0  0  0  0  0  0  0  0
    0.7145    1.2375    0.0000 C   0  0  0  0  0  0  0  0  0  0  0  0
    1.4289    0.8250    0.0000 C   0  0  0  0  0  0  0  0  0  0  0  0
    1.4289    0.0000    0.0000 C   0  0  0  0  0  0  0  0  0  0  0  0
    0.7145   -0.4125    0.0000 C   0  0  0  0  0  0  0  0  0  0  0  0
    0.0000    0.0000    0.0000 C   0  0  0  0  0  0  0  0  0  0  0  0
    0.0000    0.8250    0.0000 C   0  0  0  0  0  0  0  0  0  0  0  0
    2.1434    2.0625    0.0000 R#  0  0  0  0  0  0  0  0  0  0  0  0
  1  2  1  0
  3  2  1  1
  3  4  1  0
  4 11  1  0
  3  5  1  0
  5  6  2  0
  6  7  1  0
  7  8  2  0
  8  9  1  0
  9 10  2  0
  5 10  1  0
M  RGP  1  11   1
V   11 *
M  END
>  <m_name>  (194)
(2S)-2-amino-2-phenylethan-1-ol

>  <symbol>  (194)
Phg_ol

>  <m_abbr>  (194)
Phg_ol

>  <m_type>  (194)
aa

>  <m_subtype>  (194)
non-natural

>  <m_Rgroups>  (194)
H,None,None,None

>  <m_RgroupIdx>  (194)
10,None,None,None

>  <m_attachmentPointIdx>  (194)
3,None,None,None

>  <natAnalog>  (194)
G

>  <pdbName>  (194)
PJN

$$$$

     RDKit          2D

  8  8  0  0  0  0  0  0  0  0999 V2000
   -0.1467    2.3518    0.0000 O   0  0  0  0  0  0  0  0  0  0  0  0
    0.5678    1.9393    0.0000 C   0  0  0  0  0  0  0  0  0  0  0  0
    0.5678    1.1143    0.0000 C   0  0  0  0  0  0  0  0  0  0  0  0
    1.2352    0.6294    0.0000 C   0  0  0  0  0  0  0  0  0  0  0  0
    0.9803   -0.1553    0.0000 C   0  0  0  0  0  0  0  0  0  0  0  0
    0.1553   -0.1553    0.0000 C   0  0  0  0  0  0  0  0  0  0  0  0
   -0.0997    0.6294    0.0000 N   0  0  0  0  0  0  0  0  0  0  0  0
   -0.8843    0.8843    0.0000 R#  0  0  0  0  0  0  0  0  0  0  0  0
  1  2  1  0
  3  2  1  6
  3  4  1  0
  4  5  1  0
  5  6  1  0
  6  7  1  0
  3  7  1  0
  7  8  1  0
M  RGP  1   8   1
V    8 *
M  END
>  <m_name>  (195)
[(2S)-pyrrolidin-2-yl]methanol

>  <symbol>  (195)
Pro_ol

>  <m_abbr>  (195)
Pro_ol

>  <m_type>  (195)
aa

>  <m_subtype>  (195)
non-natural

>  <m_Rgroups>  (195)
H,None,None,None

>  <m_RgroupIdx>  (195)
7,None,None,None

>  <m_attachmentPointIdx>  (195)
6,None,None,None

>  <natAnalog>  (195)
P

>  <pdbName>  (195)
PJO

$$$$

     RDKit          2D

  8  7  0  0  0  0  0  0  0  0999 V2000
    2.4750    0.0000    0.0000 C   0  0  0  0  0  0  0  0  0  0  0  0
    2.0625    0.7145    0.0000 C   0  0  0  0  0  0  0  0  0  0  0  0
    2.4750    1.4289    0.0000 C   0  0  0  0  0  0  0  0  0  0  0  0
    1.2375    0.7145    0.0000 C   0  0  0  0  0  0  0  0  0  0  0  0
    0.8250    1.4289    0.0000 C   0  0  0  0  0  0  0  0  0  0  0  0
    0.0000    1.4289    0.0000 O   0  0  0  0  0  0  0  0  0  0  0  0
    0.8250    0.0000    0.0000 N   0  0  0  0  0  0  0  0  0  0  0  0
    0.0000    0.0000    0.0000 R#  0  0  0  0  0  0  0  0  0  0  0  0
  1  2  1  0
  2  3  1  0
  4  2  1  0
  4  5  1  6
  5  6  1  0
  4  7  1  0
  7  8  1  0
M  RGP  1   8   1
V    8 *
M  END
>  <m_name>  (196)
(2S)-2-amino-3-methylbutan-1-ol

>  <symbol>  (196)
Val_ol

>  <m_abbr>  (196)
Val_ol

>  <m_type>  (196)
aa

>  <m_subtype>  (196)
non-natural

>  <m_Rgroups>  (196)
H,None,None,None

>  <m_RgroupIdx>  (196)
7,None,None,None

>  <m_attachmentPointIdx>  (196)
6,None,None,None

>  <natAnalog>  (196)
V

>  <pdbName>  (196)
VAG

$$$$

     RDKit          2D

  6  5  0  0  0  0  0  0  0  0999 V2000
    0.8250   -1.4289    0.0000 C   0  0  0  0  0  0  0  0  0  0  0  0
    1.2375   -0.7145    0.0000 C   0  0  0  0  0  0  0  0  0  0  0  0
    2.0625   -0.7145    0.0000 N   0  0  0  0  0  0  0  0  0  0  0  0
    0.8250    0.0000    0.0000 C   0  0  0  0  0  0  0  0  0  0  0  0
    0.0000    0.0000    0.0000 O   0  0  0  0  0  0  0  0  0  0  0  0
    2.4750   -1.4289    0.0000 R#  0  0  0  0  0  0  0  0  0  0  0  0
  2  1  1  1
  2  3  1  0
  3  6  1  0
  2  4  1  0
  4  5  2  0
M  RGP  1   6   1
V    6 *
M  END
>  <m_name>  (197)
(2S)-2-aminopropanal

>  <symbol>  (197)
Ala_al

>  <m_abbr>  (197)
Ala_al

>  <m_type>  (197)
aa

>  <m_subtype>  (197)
non-natural

>  <m_Rgroups>  (197)
H,None,None,None

>  <m_RgroupIdx>  (197)
5,None,None,None

>  <m_attachmentPointIdx>  (197)
2,None,None,None

>  <natAnalog>  (197)
A

>  <pdbName>  (197)
AIE

$$$$

     RDKit          2D

 12 11  0  0  0  0  0  0  0  0999 V2000
    0.6974   -2.9487    0.0000 N   0  0  0  0  0  0  0  0  0  0  0  0
    1.2375   -3.5724    0.0000 C   0  0  0  0  0  0  0  0  0  0  0  0
    0.9675   -4.3519    0.0000 N   0  0  0  0  0  0  0  0  0  0  0  0
    2.0476   -3.4164    0.0000 N   0  0  0  0  0  0  0  0  0  0  0  0
    2.5877   -4.0401    0.0000 C   0  0  0  0  0  0  0  0  0  0  0  0
    3.3979   -3.8842    0.0000 C   0  0  0  0  0  0  0  0  0  0  0  0
    3.9379   -4.5078    0.0000 C   0  0  0  0  0  0  0  0  0  0  0  0
    4.7481   -4.3519    0.0000 C   0  0  0  0  0  0  0  0  0  0  0  0
    5.2882   -4.9755    0.0000 N   0  0  0  0  0  0  0  0  0  0  0  0
    5.0181   -3.5724    0.0000 C   0  0  0  0  0  0  0  0  0  0  0  0
    5.8283   -3.4164    0.0000 O   0  0  0  0  0  0  0  0  0  0  0  0
    6.0983   -4.8196    0.0000 R#  0  0  0  0  0  0  0  0  0  0  0  0
  1  2  1  0
  2  3  2  0
  2  4  1  0
  4  5  1  0
  5  6  1  0
  6  7  1  0
  8  7  1  1
  8  9  1  0
  9 12  1  0
  8 10  1  0
 10 11  2  0
M  RGP  1  12   1
V   12 *
M  END
>  <m_name>  (198)
N''-[(4S)-4-amino-5-oxopentyl]guanidine

>  <symbol>  (198)
Arg_al

>  <m_abbr>  (198)
Arg_al

>  <m_type>  (198)
aa

>  <m_subtype>  (198)
non-natural

>  <m_Rgroups>  (198)
H,None,None,None

>  <m_RgroupIdx>  (198)
11,None,None,None

>  <m_attachmentPointIdx>  (198)
8,None,None,None

>  <natAnalog>  (198)
R

>  <pdbName>  (198)
ARY

$$$$

     RDKit          2D

  9  8  0  0  0  0  0  0  0  0999 V2000
    0.5230    0.5230    0.0000 O   0  0  0  0  0  0  0  0  0  0  0  0
    1.2375    0.1105    0.0000 C   0  0  0  0  0  0  0  0  0  0  0  0
    1.9520    0.5230    0.0000 O   0  0  0  0  0  0  0  0  0  0  0  0
    1.2375   -0.7145    0.0000 C   0  0  0  0  0  0  0  0  0  0  0  0
    1.9520   -1.1270    0.0000 C   0  0  0  0  0  0  0  0  0  0  0  0
    1.9520   -1.9520    0.0000 N   0  0  0  0  0  0  0  0  0  0  0  0
    2.6664   -0.7145    0.0000 C   0  0  0  0  0  0  0  0  0  0  0  0
    3.3809   -1.1270    0.0000 O   0  0  0  0  0  0  0  0  0  0  0  0
    2.6664   -2.3645    0.0000 R#  0  0  0  0  0  0  0  0  0  0  0  0
  1  2  1  0
  2  3  2  0
  2  4  1  0
  5  4  1  1
  5  6  1  0
  6  9  1  0
  5  7  1  0
  7  8  2  0
M  RGP  1   9   1
V    9 *
M  END
>  <m_name>  (199)
(3S)-3-amino-4-oxobutanoic acid

>  <symbol>  (199)
Asp_al

>  <m_abbr>  (199)
Asp_al

>  <m_type>  (199)
aa

>  <m_subtype>  (199)
non-natural

>  <m_Rgroups>  (199)
H,None,None,None

>  <m_RgroupIdx>  (199)
8,None,None,None

>  <m_attachmentPointIdx>  (199)
5,None,None,None

>  <natAnalog>  (199)
N

>  <pdbName>  (199)
AII

$$$$

     RDKit          2D

 10  9  0  0  0  0  0  0  0  0999 V2000
    0.0000   -1.4289    0.0000 N   0  0  0  0  0  0  0  0  0  0  0  0
    0.8250   -1.4289    0.0000 C   0  0  0  0  0  0  0  0  0  0  0  0
    1.2375   -2.1434    0.0000 C   0  0  0  0  0  0  0  0  0  0  0  0
    2.0625   -2.1434    0.0000 C   0  0  0  0  0  0  0  0  0  0  0  0
    2.4750   -2.8579    0.0000 C   0  0  0  0  0  0  0  0  0  0  0  0
    3.3000   -2.8579    0.0000 C   0  0  0  0  0  0  0  0  0  0  0  0
    3.7125   -3.5724    0.0000 N   0  0  0  0  0  0  0  0  0  0  0  0
    3.7125   -2.1434    0.0000 C   0  0  0  0  0  0  0  0  0  0  0  0
    4.5375   -2.1434    0.0000 O   0  0  0  0  0  0  0  0  0  0  0  0
    4.5375   -3.5724    0.0000 R#  0  0  0  0  0  0  0  0  0  0  0  0
  1  2  1  0
  2  3  1  0
  3  4  1  0
  4  5  1  0
  6  5  1  1
  6  7  1  0
  7 10  1  0
  6  8  1  0
  8  9  2  0
M  RGP  1  10   1
V   10 *
M  END
>  <m_name>  (200)
(2S)-2,6-diaminohexanal

>  <symbol>  (200)
Lys_al

>  <m_abbr>  (200)
Lys_al

>  <m_type>  (200)
aa

>  <m_subtype>  (200)
non-natural

>  <m_Rgroups>  (200)
H,None,None,None

>  <m_RgroupIdx>  (200)
9,None,None,None

>  <m_attachmentPointIdx>  (200)
6,None,None,None

>  <natAnalog>  (200)
K

>  <pdbName>  (200)
LA0

$$$$

     RDKit          2D

  8  8  0  0  0  0  0  0  0  0999 V2000
    0.5678    1.1143    0.0000 N   0  0  0  0  0  0  0  0  0  0  0  0
    1.2352    0.6294    0.0000 C   0  0  0  0  0  0  0  0  0  0  0  0
    0.9803   -0.1553    0.0000 C   0  0  0  0  0  0  0  0  0  0  0  0
    0.1553   -0.1553    0.0000 C   0  0  0  0  0  0  0  0  0  0  0  0
   -0.0997    0.6294    0.0000 C   0  0  0  0  0  0  0  0  0  0  0  0
   -0.8843    0.8843    0.0000 C   0  0  0  0  0  0  0  0  0  0  0  0
   -1.4974    0.3323    0.0000 O   0  0  0  0  0  0  0  0  0  0  0  0
    0.5678    1.9393    0.0000 R#  0  0  0  0  0  0  0  0  0  0  0  0
  8  1  1  0
  1  2  1  0
  2  3  1  0
  3  4  1  0
  5  4  1  0
  5  1  1  0
  5  6  1  1
  6  7  2  0
M  RGP  1   8   1
V    8 *
M  END
>  <m_name>  (201)
(2S)-pyrrolidine-2-carbaldehyde

>  <symbol>  (201)
Pro_al

>  <m_abbr>  (201)
Pro_al

>  <m_type>  (201)
aa

>  <m_subtype>  (201)
non-natural

>  <m_Rgroups>  (201)
H,None,None,None

>  <m_RgroupIdx>  (201)
7,None,None,None

>  <m_attachmentPointIdx>  (201)
0,None,None,None

>  <natAnalog>  (201)
P

>  <pdbName>  (201)
PJR

$$$$

     RDKit          2D

  9  9  0  0  0  0  0  0  0  0999 V2000
    0.0000    2.4750    0.0000 N   0  0  0  0  0  0  0  0  0  0  0  0
    0.7145    2.0625    0.0000 C   0  0  0  0  0  0  0  0  0  0  0  0
    0.7145    1.2375    0.0000 C   0  0  0  0  0  0  0  0  0  0  0  0
    1.4289    0.8250    0.0000 C   0  0  0  0  0  0  0  0  0  0  0  0
    1.4289    0.0000    0.0000 C   0  0  0  0  0  0  0  0  0  0  0  0
    0.7145   -0.4125    0.0000 C   0  0  0  0  0  0  0  0  0  0  0  0
    0.0000    0.0000    0.0000 C   0  0  0  0  0  0  0  0  0  0  0  0
    0.0000    0.8250    0.0000 C   0  0  0  0  0  0  0  0  0  0  0  0
    0.0000    3.3000    0.0000 R#  0  0  0  0  0  0  0  0  0  0  0  0
  9  1  1  0
  1  2  1  0
  2  3  1  0
  3  4  2  0
  4  5  1  0
  5  6  2  0
  6  7  1  0
  7  8  2  0
  3  8  1  0
M  RGP  1   9   1
V    9 *
M  END
>  <m_name>  (202)
C-Terminal 1-phenylmethanamine

>  <symbol>  (202)
_NHBn

>  <m_abbr>  (202)
_NHBn

>  <m_type>  (202)
aa

>  <m_subtype>  (202)
aa

>  <m_Rgroups>  (202)
H,None,None,None

>  <m_RgroupIdx>  (202)
8,None,None,None

>  <m_attachmentPointIdx>  (202)
0,None,None,None

>  <natAnalog>  (202)
X

>  <pdbName>  (202)
NH0

$$$$

     RDKit          2D

  3  2  0  0  0  0  0  0  0  0999 V2000
    1.2375   -0.7145    0.0000 C   0  0  0  0  0  0  0  0  0  0  0  0
    1.9520   -1.1270    0.0000 N   0  0  0  0  0  0  0  0  0  0  0  0
    2.6664   -0.7145    0.0000 R#  0  0  0  0  0  0  0  0  0  0  0  0
  1  2  1  0
  2  3  1  0
M  RGP  1   3   1
V    3 *
M  END
>  <m_name>  (203)
Methanamine

>  <symbol>  (203)
NHMe

>  <m_abbr>  (203)
NHMe

>  <m_type>  (203)
aa

>  <m_subtype>  (203)
aa

>  <m_Rgroups>  (203)
H,None,None,None

>  <m_RgroupIdx>  (203)
2,None,None,None

>  <m_attachmentPointIdx>  (203)
1,None,None,None

>  <natAnalog>  (203)
X

>  <pdbName>  (203)
NB0

$$$$

     RDKit          2D

 12 11  0  0  0  0  0  0  0  0999 V2000
   -0.8250   -2.8579    0.0000 C   0  0  0  0  0  0  0  0  0  0  0  0
   -0.4125   -2.1434    0.0000 S   0  0  0  0  0  0  0  0  0  0  0  0
    0.3020   -2.5559    0.0000 O   0  0  0  0  0  0  0  0  0  0  0  0
   -1.1270   -1.7309    0.0000 O   0  0  0  0  0  0  0  0  0  0  0  0
    0.0000   -1.4289    0.0000 C   0  0  0  0  0  0  0  0  0  0  0  0
    0.8250   -1.4289    0.0000 C   0  0  0  0  0  0  0  0  0  0  0  0
    1.2375   -0.7145    0.0000 C   0  0  0  0  0  0  0  0  0  0  0  0
    2.0625   -0.7145    0.0000 N   0  0  0  0  0  0  0  0  0  0  0  0
    0.8250    0.0000    0.0000 C   0  0  0  0  0  0  0  0  0  0  0  0
    0.0000    0.0000    0.0000 O   0  0  0  0  0  0  0  0  0  0  0  0
    2.4750    0.0000    0.0000 R#  0  0  0  0  0  0  0  0  0  0  0  0
    1.2375    0.7145    0.0000 R#  0  0  0  0  0  0  0  0  0  0  0  0
  1  2  1  0
  2  3  2  0
  2  4  2  0
  2  5  1  0
  5  6  1  0
  7  6  1  1
  7  8  1  0
  8 11  1  0
  7  9  1  0
  9 12  1  0
  9 10  2  0
M  RGP  2  11   1  12   2
V   11 *
V   12 *
M  END
>  <m_name>  (204)
(2S)-2-amino-4-methanesulfonylbutanoic acid

>  <symbol>  (204)
Met_O2

>  <m_abbr>  (204)
Met_O2

>  <m_type>  (204)
aa

>  <m_subtype>  (204)
non-natural

>  <m_Rgroups>  (204)
H,OH,None,None

>  <m_RgroupIdx>  (204)
10,11,None,None

>  <m_attachmentPointIdx>  (204)
7,8,None,None

>  <natAnalog>  (204)
M

>  <pdbName>  (204)
MHJ

$$$$

     RDKit          2D

 14 14  0  0  0  0  0  0  0  0999 V2000
    0.7145    2.0625    0.0000 C   0  0  0  0  0  0  0  0  0  0  0  0
    0.7145    1.2375    0.0000 C   0  0  0  0  0  0  0  0  0  0  0  0
    1.4289    0.8250    0.0000 C   0  0  0  0  0  0  0  0  0  0  0  0
    1.4289    0.0000    0.0000 C   0  0  0  0  0  0  0  0  0  0  0  0
    0.7145   -0.4125    0.0000 C   0  0  0  0  0  0  0  0  0  0  0  0
    0.0000    0.0000    0.0000 C   0  0  0  0  0  0  0  0  0  0  0  0
    0.0000    0.8250    0.0000 C   0  0  0  0  0  0  0  0  0  0  0  0
   -0.7145    1.2375    0.0000 C   0  0  0  0  0  0  0  0  0  0  0  0
   -1.4289    0.8250    0.0000 C   0  0  0  0  0  0  0  0  0  0  0  0
   -2.1434    1.2375    0.0000 N   0  0  0  0  0  0  0  0  0  0  0  0
   -1.4289    0.0000    0.0000 C   0  0  0  0  0  0  0  0  0  0  0  0
   -0.7145   -0.4125    0.0000 O   0  0  0  0  0  0  0  0  0  0  0  0
   -2.8579    0.8250    0.0000 R#  0  0  0  0  0  0  0  0  0  0  0  0
   -2.1434   -0.4125    0.0000 R#  0  0  0  0  0  0  0  0  0  0  0  0
  1  2  1  0
  2  3  2  0
  3  4  1  0
  4  5  2  0
  5  6  1  0
  6  7  2  0
  2  7  1  0
  7  8  1  0
  9  8  1  1
  9 10  1  0
 10 13  1  0
  9 11  1  0
 11 14  1  0
 11 12  2  0
M  RGP  2  13   1  14   2
V   13 *
V   14 *
M  END
>  <m_name>  (205)
(2S)-2-amino-3-(2-methylphenyl)propanoic acid

>  <symbol>  (205)
Phe_2Me

>  <m_abbr>  (205)
Phe_2Me

>  <m_type>  (205)
aa

>  <m_subtype>  (205)
non-natural

>  <m_Rgroups>  (205)
H,OH,None,None

>  <m_RgroupIdx>  (205)
12,13,None,None

>  <m_attachmentPointIdx>  (205)
9,10,None,None

>  <natAnalog>  (205)
F

>  <pdbName>  (205)
PJU

$$$$

     RDKit          2D

 15 15  0  0  0  0  0  0  0  0999 V2000
    0.7145    2.0625    0.0000 Cl  0  0  0  0  0  0  0  0  0  0  0  0
    0.7145    1.2375    0.0000 C   0  0  0  0  0  0  0  0  0  0  0  0
    1.4289    0.8250    0.0000 C   0  0  0  0  0  0  0  0  0  0  0  0
    1.4289    0.0000    0.0000 C   0  0  0  0  0  0  0  0  0  0  0  0
    0.7145   -0.4125    0.0000 C   0  0  0  0  0  0  0  0  0  0  0  0
    0.7145   -1.2375    0.0000 C   0  0  0  0  0  0  0  0  0  0  0  0
    1.4289   -1.6500    0.0000 C   0  0  0  0  0  0  0  0  0  0  0  0
    1.4289   -2.4750    0.0000 N   0  0  0  0  0  0  0  0  0  0  0  0
    2.1434   -1.2375    0.0000 C   0  0  0  0  0  0  0  0  0  0  0  0
    2.1434   -0.4125    0.0000 O   0  0  0  0  0  0  0  0  0  0  0  0
    0.0000    0.0000    0.0000 C   0  0  0  0  0  0  0  0  0  0  0  0
    0.0000    0.8250    0.0000 C   0  0  0  0  0  0  0  0  0  0  0  0
   -0.7145    1.2375    0.0000 Cl  0  0  0  0  0  0  0  0  0  0  0  0
    2.1434   -2.8875    0.0000 R#  0  0  0  0  0  0  0  0  0  0  0  0
    2.8579   -1.6500    0.0000 R#  0  0  0  0  0  0  0  0  0  0  0  0
  1  2  1  0
  2  3  2  0
  3  4  1  0
  4  5  2  0
  5  6  1  0
  7  6  1  1
  7  8  1  0
  8 14  1  0
  7  9  1  0
  9 15  1  0
  9 10  2  0
  5 11  1  0
 11 12  2  0
  2 12  1  0
 12 13  1  0
M  RGP  2  14   1  15   2
V   14 *
V   15 *
M  END
>  <m_name>  (206)
(2S)-2-amino-3-(3,4-dichlorophenyl)propanoic acid

>  <symbol>  (206)
Phe_34diCl

>  <m_abbr>  (206)
Phe_34diCl

>  <m_type>  (206)
aa

>  <m_subtype>  (206)
non-natural

>  <m_Rgroups>  (206)
H,OH,None,None

>  <m_RgroupIdx>  (206)
13,14,None,None

>  <m_attachmentPointIdx>  (206)
7,8,None,None

>  <natAnalog>  (206)
F

>  <pdbName>  (206)
PJX

$$$$

     RDKit          2D

 14 14  0  0  0  0  0  0  0  0999 V2000
    0.7145    2.0625    0.0000 Br  0  0  0  0  0  0  0  0  0  0  0  0
    0.7145    1.2375    0.0000 C   0  0  0  0  0  0  0  0  0  0  0  0
    1.4289    0.8250    0.0000 C   0  0  0  0  0  0  0  0  0  0  0  0
    1.4289    0.0000    0.0000 C   0  0  0  0  0  0  0  0  0  0  0  0
    0.7145   -0.4125    0.0000 C   0  0  0  0  0  0  0  0  0  0  0  0
    0.7145   -1.2375    0.0000 C   0  0  0  0  0  0  0  0  0  0  0  0
    1.4289   -1.6500    0.0000 C   0  0  0  0  0  0  0  0  0  0  0  0
    1.4289   -2.4750    0.0000 N   0  0  0  0  0  0  0  0  0  0  0  0
    2.1434   -1.2375    0.0000 C   0  0  0  0  0  0  0  0  0  0  0  0
    2.1434   -0.4125    0.0000 O   0  0  0  0  0  0  0  0  0  0  0  0
    0.0000    0.0000    0.0000 C   0  0  0  0  0  0  0  0  0  0  0  0
    0.0000    0.8250    0.0000 C   0  0  0  0  0  0  0  0  0  0  0  0
    2.1434   -2.8875    0.0000 R#  0  0  0  0  0  0  0  0  0  0  0  0
    2.8579   -1.6500    0.0000 R#  0  0  0  0  0  0  0  0  0  0  0  0
  1  2  1  0
  2  3  2  0
  3  4  1  0
  4  5  2  0
  5  6  1  0
  7  6  1  1
  7  8  1  0
  8 13  1  0
  7  9  1  0
  9 14  1  0
  9 10  2  0
  5 11  1  0
 11 12  2  0
  2 12  1  0
M  RGP  2  13   1  14   2
V   13 *
V   14 *
M  END
>  <m_name>  (207)
(2S)-2-amino-3-(4-bromophenyl)propanoic acid

>  <symbol>  (207)
Phe_4Br

>  <m_abbr>  (207)
Phe_4Br

>  <m_type>  (207)
aa

>  <m_subtype>  (207)
non-natural

>  <m_Rgroups>  (207)
H,OH,None,None

>  <m_RgroupIdx>  (207)
12,13,None,None

>  <m_attachmentPointIdx>  (207)
7,8,None,None

>  <natAnalog>  (207)
F

>  <pdbName>  (207)
PJ0

$$$$

     RDKit          2D

 14 14  0  0  0  0  0  0  0  0999 V2000
    0.7145    2.0625    0.0000 I   0  0  0  0  0  0  0  0  0  0  0  0
    0.7145    1.2375    0.0000 C   0  0  0  0  0  0  0  0  0  0  0  0
    1.4289    0.8250    0.0000 C   0  0  0  0  0  0  0  0  0  0  0  0
    1.4289    0.0000    0.0000 C   0  0  0  0  0  0  0  0  0  0  0  0
    0.7145   -0.4125    0.0000 C   0  0  0  0  0  0  0  0  0  0  0  0
    0.7145   -1.2375    0.0000 C   0  0  0  0  0  0  0  0  0  0  0  0
    1.4289   -1.6500    0.0000 C   0  0  0  0  0  0  0  0  0  0  0  0
    1.4289   -2.4750    0.0000 N   0  0  0  0  0  0  0  0  0  0  0  0
    2.1434   -1.2375    0.0000 C   0  0  0  0  0  0  0  0  0  0  0  0
    2.1434   -0.4125    0.0000 O   0  0  0  0  0  0  0  0  0  0  0  0
    0.0000    0.0000    0.0000 C   0  0  0  0  0  0  0  0  0  0  0  0
    0.0000    0.8250    0.0000 C   0  0  0  0  0  0  0  0  0  0  0  0
    2.1434   -2.8875    0.0000 R#  0  0  0  0  0  0  0  0  0  0  0  0
    2.8579   -1.6500    0.0000 R#  0  0  0  0  0  0  0  0  0  0  0  0
  1  2  1  0
  2  3  2  0
  3  4  1  0
  4  5  2  0
  5  6  1  0
  7  6  1  1
  7  8  1  0
  8 13  1  0
  7  9  1  0
  9 14  1  0
  9 10  2  0
  5 11  1  0
 11 12  2  0
  2 12  1  0
M  RGP  2  13   1  14   2
V   13 *
V   14 *
M  END
>  <m_name>  (208)
(2S)-2-amino-3-(4-iodophenyl)propanoic acid

>  <symbol>  (208)
Phe_4I

>  <m_abbr>  (208)
Phe_4I

>  <m_type>  (208)
aa

>  <m_subtype>  (208)
non-natural

>  <m_Rgroups>  (208)
H,OH,None,None

>  <m_RgroupIdx>  (208)
12,13,None,None

>  <m_attachmentPointIdx>  (208)
7,8,None,None

>  <natAnalog>  (208)
F

>  <pdbName>  (208)
PJ3

$$$$

     RDKit          2D

 24 25  0  0  0  0  0  0  0  0999 V2000
    0.7145   -0.4125    0.0000 N   0  0  0  0  0  0  0  0  0  0  0  0
    0.7145   -1.2375    0.0000 C   0  0  0  0  0  0  0  0  0  0  0  0
    1.4289   -1.6500    0.0000 C   0  0  0  0  0  0  0  0  0  0  0  0
    1.4289   -2.4750    0.0000 C   0  0  0  0  0  0  0  0  0  0  0  0
    2.1434   -2.8875    0.0000 C   0  0  0  0  0  0  0  0  0  0  0  0
    2.1434   -3.7125    0.0000 C   0  0  0  0  0  0  0  0  0  0  0  0
    1.4289   -4.1250    0.0000 C   0  0  0  0  0  0  0  0  0  0  0  0
    1.4289   -4.9500    0.0000 N   0  0  0  0  0  0  0  0  0  0  0  0
    2.1434   -5.3625    0.0000 C   0  0  0  0  0  0  0  0  0  0  0  0
    2.8579   -4.9500    0.0000 O   0  0  0  0  0  0  0  0  0  0  0  0
    2.1434   -6.1875    0.0000 C   0  0  0  0  0  0  0  0  0  0  0  0
    2.8579   -6.6000    0.0000 C   0  0  0  0  0  0  0  0  0  0  0  0
    2.8579   -7.4250    0.0000 C   0  0  0  0  0  0  0  0  0  0  0  0
    3.5724   -7.8375    0.0000 O   0  0  0  0  0  0  0  0  0  0  0  0
    2.1434   -7.8375    0.0000 N   0  0  0  0  0  0  0  0  0  0  0  0
    1.4289   -7.4250    0.0000 C   0  0  0  0  0  0  0  0  0  0  0  0
    0.7145   -7.8375    0.0000 O   0  0  0  0  0  0  0  0  0  0  0  0
    1.4289   -6.6000    0.0000 N   0  0  0  0  0  0  0  0  0  0  0  0
    0.7145   -3.7125    0.0000 C   0  0  0  0  0  0  0  0  0  0  0  0
    0.7145   -2.8875    0.0000 C   0  0  0  0  0  0  0  0  0  0  0  0
    0.0000   -1.6500    0.0000 C   0  0  0  0  0  0  0  0  0  0  0  0
   -0.7145   -1.2375    0.0000 O   0  0  0  0  0  0  0  0  0  0  0  0
    0.0000    0.0000    0.0000 R#  0  0  0  0  0  0  0  0  0  0  0  0
    0.0000   -2.4750    0.0000 R#  0  0  0  0  0  0  0  0  0  0  0  0
 23  1  1  0
  2  1  1  0
  2  3  1  1
  3  4  1  0
  4  5  2  0
  5  6  1  0
  6  7  2  0
  7  8  1  0
  8  9  1  0
  9 10  2  0
 11  9  1  6
 11 12  1  0
 12 13  1  0
 13 14  2  0
 13 15  1  0
 15 16  1  0
 16 17  2  0
 16 18  1  0
 11 18  1  0
  7 19  1  0
 19 20  2  0
  4 20  1  0
  2 21  1  0
 21 24  1  0
 21 22  2  0
M  RGP  2  23   1  24   2
V   23 *
V   24 *
M  END
>  <m_name>  (209)
(2S)-2-amino-3-{4-[(4S)-2,6-dioxo-1,3-diazinane-4-amido]phenyl}propanoic acid

>  <symbol>  (209)
Phe_4Sdihydroorotamido

>  <m_abbr>  (209)
Phe_4Sdihydroorotamido

>  <m_type>  (209)
aa

>  <m_subtype>  (209)
non-natural

>  <m_Rgroups>  (209)
H,OH,None,None

>  <m_RgroupIdx>  (209)
22,23,None,None

>  <m_attachmentPointIdx>  (209)
0,20,None,None

>  <natAnalog>  (209)
F

>  <pdbName>  (209)
PJ6

$$$$

     RDKit          2D

 19 19  0  0  0  0  0  0  0  0999 V2000
    1.2054   -1.3036    0.0000 C   0  0  0  0  0  0  0  0  0  0  0  0
    0.8068   -0.5813    0.0000 C   0  0  0  0  0  0  0  0  0  0  0  0
   -0.0119   -0.4792    0.0000 C   0  0  0  0  0  0  0  0  0  0  0  0
   -0.1678    0.3309    0.0000 C   0  0  0  0  0  0  0  0  0  0  0  0
    0.5545    0.7295    0.0000 N   0  0  0  0  0  0  0  0  0  0  0  0
    1.1568    0.1658    0.0000 C   0  0  0  0  0  0  0  0  0  0  0  0
    1.9670    0.3217    0.0000 C   0  0  0  0  0  0  0  0  0  0  0  0
    2.2370    1.1012    0.0000 O   0  0  0  0  0  0  0  0  0  0  0  0
    2.5070   -0.3020    0.0000 N   0  0  0  0  0  0  0  0  0  0  0  0
    3.3172   -0.1461    0.0000 C   0  0  0  0  0  0  0  0  0  0  0  0
    3.8573   -0.7697    0.0000 C   0  0  0  0  0  0  0  0  0  0  0  0
    4.6674   -0.6138    0.0000 C   0  0  0  0  0  0  0  0  0  0  0  0
    5.2075   -1.2374    0.0000 C   0  0  0  0  0  0  0  0  0  0  0  0
    6.0176   -1.0815    0.0000 C   0  0  0  0  0  0  0  0  0  0  0  0
    6.5577   -1.7052    0.0000 N   0  0  0  0  0  0  0  0  0  0  0  0
    6.2877   -0.3020    0.0000 C   0  0  0  0  0  0  0  0  0  0  0  0
    7.0978   -0.1461    0.0000 O   0  0  0  0  0  0  0  0  0  0  0  0
    7.3678   -1.5493    0.0000 R#  0  0  0  0  0  0  0  0  0  0  0  0
    5.7476    0.3217    0.0000 R#  0  0  0  0  0  0  0  0  0  0  0  0
  2  1  1  6
  2  3  1  0
  3  4  1  0
  4  5  2  0
  6  5  1  0
  2  6  1  0
  6  7  1  1
  7  8  2  0
  7  9  1  0
  9 10  1  0
 10 11  1  0
 11 12  1  0
 12 13  1  0
 14 13  1  1
 14 15  1  0
 15 18  1  0
 14 16  1  0
 16 19  1  0
 16 17  2  0
M  RGP  2  18   1  19   2
V   18 *
V   19 *
M  END
>  <m_name>  (210)
Pyrrolysine

>  <symbol>  (210)
Pyl

>  <m_abbr>  (210)
Pyl

>  <m_type>  (210)
aa

>  <m_subtype>  (210)
non-natural

>  <m_Rgroups>  (210)
H,OH,None,None

>  <m_RgroupIdx>  (210)
17,18,None,None

>  <m_attachmentPointIdx>  (210)
14,15,None,None

>  <natAnalog>  (210)
X

>  <pdbName>  (210)
PJ9

$$$$

     RDKit          2D

 12 11  0  0  0  0  0  0  0  0999 V2000
   -0.8250   -2.8579    0.0000 O   0  0  0  0  0  0  0  0  0  0  0  0
   -0.4125   -2.1434    0.0000 P   0  0  0  0  0  0  0  0  0  0  0  0
    0.3020   -2.5559    0.0000 O   0  0  0  0  0  0  0  0  0  0  0  0
   -1.1270   -1.7309    0.0000 O   0  0  0  0  0  0  0  0  0  0  0  0
    0.0000   -1.4289    0.0000 O   0  0  0  0  0  0  0  0  0  0  0  0
    0.8250   -1.4289    0.0000 C   0  0  0  0  0  0  0  0  0  0  0  0
    1.2375   -0.7145    0.0000 C   0  0  0  0  0  0  0  0  0  0  0  0
    2.0625   -0.7145    0.0000 N   0  0  0  0  0  0  0  0  0  0  0  0
    0.8250    0.0000    0.0000 C   0  0  0  0  0  0  0  0  0  0  0  0
    0.0000    0.0000    0.0000 O   0  0  0  0  0  0  0  0  0  0  0  0
    2.4750    0.0000    0.0000 R#  0  0  0  0  0  0  0  0  0  0  0  0
    1.2375    0.7145    0.0000 R#  0  0  0  0  0  0  0  0  0  0  0  0
  1  2  1  0
  2  3  1  0
  2  4  2  0
  2  5  1  0
  5  6  1  0
  7  6  1  1
  7  8  1  0
  8 11  1  0
  7  9  1  0
  9 12  1  0
  9 10  2  0
M  RGP  2  11   1  12   2
V   11 *
V   12 *
M  END
>  <m_name>  (211)
(2S)-2-amino-3-(phosphonooxy)propanoic acid

>  <symbol>  (211)
Ser_PO3H2

>  <m_abbr>  (211)
Ser_PO3H2

>  <m_type>  (211)
aa

>  <m_subtype>  (211)
non-natural

>  <m_Rgroups>  (211)
H,OH,None,None

>  <m_RgroupIdx>  (211)
10,11,None,None

>  <m_attachmentPointIdx>  (211)
7,8,None,None

>  <natAnalog>  (211)
S

>  <pdbName>  (211)
SEW

$$$$

     RDKit          2D

 13 12  0  0  0  0  0  0  0  0999 V2000
    1.2375   -2.1434    0.0000 C   0  0  0  0  0  0  0  0  0  0  0  0
    0.8250   -1.4289    0.0000 C   0  0  0  0  0  0  0  0  0  0  0  0
    0.0000   -1.4289    0.0000 O   0  0  0  0  0  0  0  0  0  0  0  0
   -0.4125   -2.1434    0.0000 P   0  0  0  0  0  0  0  0  0  0  0  0
   -0.8250   -2.8579    0.0000 O   0  0  0  0  0  0  0  0  0  0  0  0
    0.3020   -2.5559    0.0000 O   0  0  0  0  0  0  0  0  0  0  0  0
   -1.1270   -1.7309    0.0000 O   0  0  0  0  0  0  0  0  0  0  0  0
    1.2375   -0.7145    0.0000 C   0  0  0  0  0  0  0  0  0  0  0  0
    2.0625   -0.7145    0.0000 N   0  0  0  0  0  0  0  0  0  0  0  0
    0.8250    0.0000    0.0000 C   0  0  0  0  0  0  0  0  0  0  0  0
    0.0000    0.0000    0.0000 O   0  0  0  0  0  0  0  0  0  0  0  0
    2.4750    0.0000    0.0000 R#  0  0  0  0  0  0  0  0  0  0  0  0
    1.2375    0.7145    0.0000 R#  0  0  0  0  0  0  0  0  0  0  0  0
  2  1  1  1
  2  3  1  0
  3  4  1  0
  4  5  1  0
  4  6  1  0
  4  7  2  0
  2  8  1  0
  8  9  1  1
  9 12  1  0
  8 10  1  0
 10 13  1  0
 10 11  2  0
M  RGP  2  12   1  13   2
V   12 *
V   13 *
M  END
>  <m_name>  (212)
(2S,3R)-2-amino-3-(phosphonooxy)butanoic acid

>  <symbol>  (212)
Thr_PO3H2

>  <m_abbr>  (212)
Thr_PO3H2

>  <m_type>  (212)
aa

>  <m_subtype>  (212)
non-natural

>  <m_Rgroups>  (212)
H,OH,None,None

>  <m_RgroupIdx>  (212)
11,12,None,None

>  <m_attachmentPointIdx>  (212)
8,9,None,None

>  <natAnalog>  (212)
T

>  <pdbName>  (212)
TBW

$$$$

     RDKit          2D

  9  9  0  0  0  0  0  0  0  0999 V2000
    0.5678    1.1143    0.0000 N   0  0  0  0  0  0  0  0  0  0  0  0
    1.2352    0.6294    0.0000 C   0  0  0  0  0  0  0  0  0  0  0  0
    0.9803   -0.1553    0.0000 S   0  0  0  0  0  0  0  0  0  0  0  0
    0.1553   -0.1553    0.0000 C   0  0  0  0  0  0  0  0  0  0  0  0
   -0.0997    0.6294    0.0000 C   0  0  0  0  0  0  0  0  0  0  0  0
   -0.8843    0.8843    0.0000 C   0  0  0  0  0  0  0  0  0  0  0  0
   -1.0558    1.6913    0.0000 O   0  0  0  0  0  0  0  0  0  0  0  0
    0.5678    1.9393    0.0000 R#  0  0  0  0  0  0  0  0  0  0  0  0
   -1.4974    0.3323    0.0000 R#  0  0  0  0  0  0  0  0  0  0  0  0
  8  1  1  0
  1  2  1  0
  2  3  1  0
  3  4  1  0
  5  4  1  0
  5  1  1  0
  5  6  1  1
  6  9  1  0
  6  7  2  0
M  RGP  2   8   1   9   2
V    8 *
V    9 *
M  END
>  <m_name>  (213)
(4R)-1,3-thiazolidine-4-carboxylic acid

>  <symbol>  (213)
Thz

>  <m_abbr>  (213)
Thz

>  <m_type>  (213)
aa

>  <m_subtype>  (213)
non-natural

>  <m_Rgroups>  (213)
H,OH,None,None

>  <m_RgroupIdx>  (213)
7,8,None,None

>  <m_attachmentPointIdx>  (213)
0,5,None,None

>  <natAnalog>  (213)
X

>  <pdbName>  (213)
TB3

$$$$

     RDKit          2D

 17 18  0  0  0  0  0  0  0  0999 V2000
    0.8838   -2.1500    0.0000 C   0  0  0  0  0  0  0  0  0  0  0  0
    1.1387   -1.3654    0.0000 N   0  0  0  0  0  0  0  0  0  0  0  0
    0.6538   -0.6979    0.0000 C   0  0  0  0  0  0  0  0  0  0  0  0
    1.1387   -0.0305    0.0000 C   0  0  0  0  0  0  0  0  0  0  0  0
    0.8838    0.7541    0.0000 C   0  0  0  0  0  0  0  0  0  0  0  0
    0.0768    0.9256    0.0000 C   0  0  0  0  0  0  0  0  0  0  0  0
   -0.1781    1.7103    0.0000 N   0  0  0  0  0  0  0  0  0  0  0  0
   -0.4752    0.3126    0.0000 C   0  0  0  0  0  0  0  0  0  0  0  0
   -0.2203   -0.4721    0.0000 O   0  0  0  0  0  0  0  0  0  0  0  0
    1.9233   -0.2854    0.0000 C   0  0  0  0  0  0  0  0  0  0  0  0
    2.6378    0.1271    0.0000 C   0  0  0  0  0  0  0  0  0  0  0  0
    3.3523   -0.2854    0.0000 C   0  0  0  0  0  0  0  0  0  0  0  0
    3.3523   -1.1104    0.0000 C   0  0  0  0  0  0  0  0  0  0  0  0
    2.6378   -1.5229    0.0000 C   0  0  0  0  0  0  0  0  0  0  0  0
    1.9233   -1.1104    0.0000 C   0  0  0  0  0  0  0  0  0  0  0  0
   -0.9851    1.8818    0.0000 R#  0  0  0  0  0  0  0  0  0  0  0  0
   -1.2822    0.4841    0.0000 R#  0  0  0  0  0  0  0  0  0  0  0  0
  1  2  1  0
  2  3  1  0
  3  4  2  0
  4  5  1  0
  6  5  1  1
  6  7  1  0
  7 16  1  0
  6  8  1  0
  8 17  1  0
  8  9  2  0
  4 10  1  0
 10 11  2  0
 11 12  1  0
 12 13  2  0
 13 14  1  0
 14 15  2  0
  2 15  1  0
 10 15  1  0
M  RGP  2  16   1  17   2
V   16 *
V   17 *
M  END
>  <m_name>  (214)
(2S)-2-amino-3-(1-methyl-1H-indol-3-yl)propanoic acid

>  <symbol>  (214)
Trp_Me

>  <m_abbr>  (214)
Trp_Me

>  <m_type>  (214)
aa

>  <m_subtype>  (214)
non-natural

>  <m_Rgroups>  (214)
H,OH,None,None

>  <m_RgroupIdx>  (214)
15,16,None,None

>  <m_attachmentPointIdx>  (214)
6,7,None,None

>  <natAnalog>  (214)
W

>  <pdbName>  (214)
TB4

$$$$

     RDKit          2D

 16 16  0  0  0  0  0  0  0  0999 V2000
    0.7145    2.0625    0.0000 C   0  0  0  0  0  0  0  0  0  0  0  0
    0.7145    1.2375    0.0000 C   0  0  0  0  0  0  0  0  0  0  0  0
    1.4289    0.8250    0.0000 C   0  0  0  0  0  0  0  0  0  0  0  0
    1.4289    0.0000    0.0000 C   0  0  0  0  0  0  0  0  0  0  0  0
    2.1434   -0.4125    0.0000 O   0  0  0  0  0  0  0  0  0  0  0  0
    0.7145   -0.4125    0.0000 C   0  0  0  0  0  0  0  0  0  0  0  0
    0.0000    0.0000    0.0000 C   0  0  0  0  0  0  0  0  0  0  0  0
   -0.7145   -0.4125    0.0000 C   0  0  0  0  0  0  0  0  0  0  0  0
    0.0000    0.8250    0.0000 C   0  0  0  0  0  0  0  0  0  0  0  0
   -0.7145    1.2375    0.0000 C   0  0  0  0  0  0  0  0  0  0  0  0
   -1.4289    0.8250    0.0000 C   0  0  0  0  0  0  0  0  0  0  0  0
   -1.4289    0.0000    0.0000 N   0  0  0  0  0  0  0  0  0  0  0  0
   -2.1434    1.2375    0.0000 C   0  0  0  0  0  0  0  0  0  0  0  0
   -2.1434    2.0625    0.0000 O   0  0  0  0  0  0  0  0  0  0  0  0
   -2.1434   -0.4125    0.0000 R#  0  0  0  0  0  0  0  0  0  0  0  0
   -2.8579    0.8250    0.0000 R#  0  0  0  0  0  0  0  0  0  0  0  0
  1  2  1  0
  2  3  2  0
  3  4  1  0
  4  5  1  0
  4  6  2  0
  6  7  1  0
  7  8  1  0
  7  9  2  0
  2  9  1  0
  9 10  1  0
 11 10  1  6
 11 12  1  0
 12 15  1  0
 11 13  1  0
 13 16  1  0
 13 14  2  0
M  RGP  2  15   1  16   2
V   15 *
V   16 *
M  END
>  <m_name>  (215)
(2S)-2-amino-3-(4-hydroxy-2,6-dimethylphenyl)propanoic acid

>  <symbol>  (215)
Tyr_26diMe

>  <m_abbr>  (215)
Tyr_26diMe

>  <m_type>  (215)
aa

>  <m_subtype>  (215)
non-natural

>  <m_Rgroups>  (215)
H,OH,None,None

>  <m_RgroupIdx>  (215)
14,15,None,None

>  <m_attachmentPointIdx>  (215)
11,12,None,None

>  <natAnalog>  (215)
Y

>  <pdbName>  (215)
TY7

$$$$

     RDKit          2D

 15 15  0  0  0  0  0  0  0  0999 V2000
    0.7145    2.0625    0.0000 O   0  0  0  0  0  0  0  0  0  0  0  0
    0.7145    1.2375    0.0000 C   0  0  0  0  0  0  0  0  0  0  0  0
    1.4289    0.8250    0.0000 C   0  0  0  0  0  0  0  0  0  0  0  0
    1.4289    0.0000    0.0000 C   0  0  0  0  0  0  0  0  0  0  0  0
    0.7145   -0.4125    0.0000 C   0  0  0  0  0  0  0  0  0  0  0  0
    0.7145   -1.2375    0.0000 C   0  0  0  0  0  0  0  0  0  0  0  0
    1.4289   -1.6500    0.0000 C   0  0  0  0  0  0  0  0  0  0  0  0
    1.4289   -2.4750    0.0000 N   0  0  0  0  0  0  0  0  0  0  0  0
    2.1434   -1.2375    0.0000 C   0  0  0  0  0  0  0  0  0  0  0  0
    2.1434   -0.4125    0.0000 O   0  0  0  0  0  0  0  0  0  0  0  0
    0.0000    0.0000    0.0000 C   0  0  0  0  0  0  0  0  0  0  0  0
    0.0000    0.8250    0.0000 C   0  0  0  0  0  0  0  0  0  0  0  0
   -0.7145    1.2375    0.0000 I   0  0  0  0  0  0  0  0  0  0  0  0
    2.1434   -2.8875    0.0000 R#  0  0  0  0  0  0  0  0  0  0  0  0
    2.8579   -1.6500    0.0000 R#  0  0  0  0  0  0  0  0  0  0  0  0
  1  2  1  0
  2  3  2  0
  3  4  1  0
  4  5  2  0
  5  6  1  0
  7  6  1  1
  7  8  1  0
  8 14  1  0
  7  9  1  0
  9 15  1  0
  9 10  2  0
  5 11  1  0
 11 12  2  0
  2 12  1  0
 12 13  1  0
M  RGP  2  14   1  15   2
V   14 *
V   15 *
M  END
>  <m_name>  (216)
(2S)-2-amino-3-(4-hydroxy-3-iodophenyl)propanoic acid

>  <symbol>  (216)
Tyr_3I

>  <m_abbr>  (216)
Tyr_3I

>  <m_type>  (216)
aa

>  <m_subtype>  (216)
non-natural

>  <m_Rgroups>  (216)
H,OH,None,None

>  <m_RgroupIdx>  (216)
13,14,None,None

>  <m_attachmentPointIdx>  (216)
7,8,None,None

>  <natAnalog>  (216)
Y

>  <pdbName>  (216)
TCS

$$$$

     RDKit          2D

 17 17  0  0  0  0  0  0  0  0999 V2000
   -0.7145    1.2375    0.0000 N   0  0  0  0  0  0  0  0  0  0  0  0
   -0.7145    2.0625    0.0000 O   0  0  0  0  0  0  0  0  0  0  0  0
   -1.4289    0.8250    0.0000 O   0  0  0  0  0  0  0  0  0  0  0  0
    0.0000    0.8250    0.0000 C   0  0  0  0  0  0  0  0  0  0  0  0
    0.0000    0.0000    0.0000 C   0  0  0  0  0  0  0  0  0  0  0  0
    0.7145    1.2375    0.0000 C   0  0  0  0  0  0  0  0  0  0  0  0
    0.7145   -0.4125    0.0000 C   0  0  0  0  0  0  0  0  0  0  0  0
    0.7145    2.0625    0.0000 O   0  0  0  0  0  0  0  0  0  0  0  0
    1.4289    0.8250    0.0000 C   0  0  0  0  0  0  0  0  0  0  0  0
    1.4289    0.0000    0.0000 C   0  0  0  0  0  0  0  0  0  0  0  0
    0.7145   -1.2375    0.0000 C   0  0  0  0  0  0  0  0  0  0  0  0
    1.4289   -1.6500    0.0000 C   0  0  0  0  0  0  0  0  0  0  0  0
    1.4289   -2.4750    0.0000 N   0  0  0  0  0  0  0  0  0  0  0  0
    2.1434   -1.2375    0.0000 C   0  0  0  0  0  0  0  0  0  0  0  0
    2.1434   -0.4125    0.0000 O   0  0  0  0  0  0  0  0  0  0  0  0
    2.1434   -2.8875    0.0000 R#  0  0  0  0  0  0  0  0  0  0  0  0
    2.8579   -1.6500    0.0000 R#  0  0  0  0  0  0  0  0  0  0  0  0
  2  1  1  0
  1  3  2  0
  4  1  1  0
  5  4  2  0
  6  4  1  0
  7  5  1  0
  8  6  1  0
  6  9  2  0
 10  7  2  0
  7 11  1  0
  9 10  1  0
 12 11  1  1
 12 13  1  0
 12 14  1  0
 13 16  1  0
 14 17  1  0
 14 15  2  0
M  CHG  2   1   1   2  -1
M  RGP  2  16   1  17   2
V   16 *
V   17 *
M  END
>  <m_name>  (217)
(2S)-2-amino-3-(4-hydroxy-3-nitrophenyl)propanoic acid

>  <symbol>  (217)
Tyr_3NO2

>  <m_abbr>  (217)
Tyr_3NO2

>  <m_type>  (217)
aa

>  <m_subtype>  (217)
non-natural

>  <m_Rgroups>  (217)
H,OH,None,None

>  <m_RgroupIdx>  (217)
15,16,None,None

>  <m_attachmentPointIdx>  (217)
12,13,None,None

>  <natAnalog>  (217)
Y

>  <pdbName>  (217)
TDQ

$$$$

     RDKit          2D

 21 22  0  0  0  0  0  0  0  0999 V2000
    2.1434   -0.4125    0.0000 O   0  0  0  0  0  0  0  0  0  0  0  0
    2.1434   -1.2375    0.0000 C   0  0  0  0  0  0  0  0  0  0  0  0
    2.8579   -1.6500    0.0000 C   0  0  0  0  0  0  0  0  0  0  0  0
    2.8579   -2.4750    0.0000 C   0  0  0  0  0  0  0  0  0  0  0  0
    2.1434   -2.8875    0.0000 C   0  0  0  0  0  0  0  0  0  0  0  0
    2.1434   -3.7125    0.0000 O   0  0  0  0  0  0  0  0  0  0  0  0
    1.4289   -4.1250    0.0000 C   0  0  0  0  0  0  0  0  0  0  0  0
    1.4289   -4.9500    0.0000 C   0  0  0  0  0  0  0  0  0  0  0  0
    0.7145   -5.3625    0.0000 C   0  0  0  0  0  0  0  0  0  0  0  0
    0.0000   -4.9500    0.0000 C   0  0  0  0  0  0  0  0  0  0  0  0
   -0.7145   -5.3625    0.0000 C   0  0  0  0  0  0  0  0  0  0  0  0
   -0.7145   -6.1875    0.0000 C   0  0  0  0  0  0  0  0  0  0  0  0
   -1.4289   -6.6000    0.0000 N   0  0  0  0  0  0  0  0  0  0  0  0
    0.0000   -6.6000    0.0000 C   0  0  0  0  0  0  0  0  0  0  0  0
    0.7145   -6.1875    0.0000 O   0  0  0  0  0  0  0  0  0  0  0  0
    0.0000   -4.1250    0.0000 C   0  0  0  0  0  0  0  0  0  0  0  0
    0.7145   -3.7125    0.0000 C   0  0  0  0  0  0  0  0  0  0  0  0
    1.4289   -2.4750    0.0000 C   0  0  0  0  0  0  0  0  0  0  0  0
    1.4289   -1.6500    0.0000 C   0  0  0  0  0  0  0  0  0  0  0  0
   -1.4289   -7.4250    0.0000 R#  0  0  0  0  0  0  0  0  0  0  0  0
    0.0000   -7.4250    0.0000 R#  0  0  0  0  0  0  0  0  0  0  0  0
  1  2  1  0
  2  3  2  0
  3  4  1  0
  4  5  2  0
  5  6  1  0
  6  7  1  0
  7  8  2  0
  8  9  1  0
  9 10  2  0
 10 11  1  0
 12 11  1  1
 12 13  1  0
 13 20  1  0
 12 14  1  0
 14 21  1  0
 14 15  2  0
 10 16  1  0
 16 17  2  0
  7 17  1  0
  5 18  1  0
 18 19  2  0
  2 19  1  0
M  RGP  2  20   1  21   2
V   20 *
V   21 *
M  END
>  <m_name>  (218)
(2S)-2-amino-3-[4-(4-hydroxyphenoxy)phenyl]propanoic acid

>  <symbol>  (218)
Tyr_Ph4OH

>  <m_abbr>  (218)
Tyr_Ph4OH

>  <m_type>  (218)
aa

>  <m_subtype>  (218)
non-natural

>  <m_Rgroups>  (218)
H,OH,None,None

>  <m_RgroupIdx>  (218)
19,20,None,None

>  <m_attachmentPointIdx>  (218)
12,13,None,None

>  <natAnalog>  (218)
Y

>  <pdbName>  (218)
TD0

$$$$

     RDKit          2D

 18 18  0  0  0  0  0  0  0  0999 V2000
   -0.7145    2.8875    0.0000 O   0  0  0  0  0  0  0  0  0  0  0  0
    0.0000    2.4750    0.0000 S   0  0  0  0  0  0  0  0  0  0  0  0
   -0.4125    1.7605    0.0000 O   0  0  0  0  0  0  0  0  0  0  0  0
    0.4125    3.1895    0.0000 O   0  0  0  0  0  0  0  0  0  0  0  0
    0.7145    2.0625    0.0000 O   0  0  0  0  0  0  0  0  0  0  0  0
    0.7145    1.2375    0.0000 C   0  0  0  0  0  0  0  0  0  0  0  0
    1.4289    0.8250    0.0000 C   0  0  0  0  0  0  0  0  0  0  0  0
    1.4289    0.0000    0.0000 C   0  0  0  0  0  0  0  0  0  0  0  0
    0.7145   -0.4125    0.0000 C   0  0  0  0  0  0  0  0  0  0  0  0
    0.7145   -1.2375    0.0000 C   0  0  0  0  0  0  0  0  0  0  0  0
    1.4289   -1.6500    0.0000 C   0  0  0  0  0  0  0  0  0  0  0  0
    1.4289   -2.4750    0.0000 N   0  0  0  0  0  0  0  0  0  0  0  0
    2.1434   -1.2375    0.0000 C   0  0  0  0  0  0  0  0  0  0  0  0
    2.1434   -0.4125    0.0000 O   0  0  0  0  0  0  0  0  0  0  0  0
    0.0000    0.0000    0.0000 C   0  0  0  0  0  0  0  0  0  0  0  0
    0.0000    0.8250    0.0000 C   0  0  0  0  0  0  0  0  0  0  0  0
    2.1434   -2.8875    0.0000 R#  0  0  0  0  0  0  0  0  0  0  0  0
    2.8579   -1.6500    0.0000 R#  0  0  0  0  0  0  0  0  0  0  0  0
  1  2  1  0
  2  3  2  0
  2  4  2  0
  2  5  1  0
  5  6  1  0
  6  7  2  0
  7  8  1  0
  8  9  2  0
  9 10  1  0
 11 10  1  1
 11 12  1  0
 12 17  1  0
 11 13  1  0
 13 18  1  0
 13 14  2  0
  9 15  1  0
 15 16  2  0
  6 16  1  0
M  RGP  2  17   1  18   2
V   17 *
V   18 *
M  END
>  <m_name>  (219)
(2S)-2-amino-3-[4-(sulfooxy)phenyl]propanoic acid

>  <symbol>  (219)
Tyr_SO3H

>  <m_abbr>  (219)
Tyr_SO3H

>  <m_type>  (219)
aa

>  <m_subtype>  (219)
non-natural

>  <m_Rgroups>  (219)
H,OH,None,None

>  <m_RgroupIdx>  (219)
16,17,None,None

>  <m_attachmentPointIdx>  (219)
11,12,None,None

>  <natAnalog>  (219)
Y

>  <pdbName>  (219)
TEW

$$$$

     RDKit          2D

 10  9  0  0  0  0  0  0  0  0999 V2000
    0.4125   -2.1434    0.0000 C   0  0  0  0  0  0  0  0  0  0  0  0
    0.8250   -1.4289    0.0000 C   0  0  0  0  0  0  0  0  0  0  0  0
    1.5395   -1.8414    0.0000 C   0  0  0  0  0  0  0  0  0  0  0  0
    0.1105   -1.0164    0.0000 O   0  0  0  0  0  0  0  0  0  0  0  0
    1.2375   -0.7145    0.0000 C   0  0  0  0  0  0  0  0  0  0  0  0
    2.0625   -0.7145    0.0000 N   0  0  0  0  0  0  0  0  0  0  0  0
    0.8250    0.0000    0.0000 C   0  0  0  0  0  0  0  0  0  0  0  0
    0.0000    0.0000    0.0000 O   0  0  0  0  0  0  0  0  0  0  0  0
    2.4750    0.0000    0.0000 R#  0  0  0  0  0  0  0  0  0  0  0  0
    1.2375    0.7145    0.0000 R#  0  0  0  0  0  0  0  0  0  0  0  0
  1  2  1  0
  2  3  1  0
  2  4  1  0
  5  2  1  0
  5  6  1  1
  6  9  1  0
  5  7  1  0
  7 10  1  0
  7  8  2  0
M  RGP  2   9   1  10   2
V    9 *
V   10 *
M  END
>  <m_name>  (220)
(2S)-2-amino-3-hydroxy-3-methylbutanoic acid

>  <symbol>  (220)
Val_3OH

>  <m_abbr>  (220)
Val_3OH

>  <m_type>  (220)
aa

>  <m_subtype>  (220)
non-natural

>  <m_Rgroups>  (220)
H,OH,None,None

>  <m_RgroupIdx>  (220)
8,9,None,None

>  <m_attachmentPointIdx>  (220)
5,6,None,None

>  <natAnalog>  (220)
V

>  <pdbName>  (220)
VAM

$$$$

     RDKit          2D

 10  9  0  0  0  0  0  0  0  0999 V2000
    0.5230    0.5230    0.0000 C   0  0  0  0  0  0  0  0  0  0  0  0
    1.2375    0.1105    0.0000 C   0  0  0  0  0  0  0  0  0  0  0  0
    1.2375   -0.7145    0.0000 C   0  0  0  0  0  0  0  0  0  0  0  0
    0.5230   -1.1270    0.0000 C   0  0  0  0  0  0  0  0  0  0  0  0
    1.9520   -1.1270    0.0000 C   0  0  0  0  0  0  0  0  0  0  0  0
    1.9520   -1.9520    0.0000 N   0  0  0  0  0  0  0  0  0  0  0  0
    2.6664   -0.7145    0.0000 C   0  0  0  0  0  0  0  0  0  0  0  0
    3.3809   -1.1270    0.0000 O   0  0  0  0  0  0  0  0  0  0  0  0
    2.6664   -2.3645    0.0000 R#  0  0  0  0  0  0  0  0  0  0  0  0
    2.6664    0.1105    0.0000 R#  0  0  0  0  0  0  0  0  0  0  0  0
  1  2  1  0
  2  3  1  0
  3  4  1  0
  5  3  1  0
  5  6  1  1
  6  9  1  0
  5  7  1  0
  7 10  1  0
  7  8  2  0
M  RGP  2   9   1  10   2
V    9 *
V   10 *
M  END
>  <m_name>  (221)
(2S)-2-amino-3-methylpentanoic acid

>  <symbol>  (221)
xiIle

>  <m_abbr>  (221)
xiIle

>  <m_type>  (221)
aa

>  <m_subtype>  (221)
non-natural

>  <m_Rgroups>  (221)
H,OH,None,None

>  <m_RgroupIdx>  (221)
8,9,None,None

>  <m_attachmentPointIdx>  (221)
5,6,None,None

>  <natAnalog>  (221)
I

>  <pdbName>  (221)
XII

$$$$

     RDKit          2D

 12 12  0  0  0  0  0  0  0  0999 V2000
    0.0000    2.4750    0.0000 C   0  0  0  0  0  0  0  0  0  0  0  0
    0.7145    2.0625    0.0000 N   0  0  0  0  0  0  0  0  0  0  0  0
    0.7145    1.2375    0.0000 C   0  0  0  0  0  0  0  0  0  0  0  0
    1.4289    0.8250    0.0000 C   0  0  0  0  0  0  0  0  0  0  0  0
    1.4289    0.0000    0.0000 C   0  0  0  0  0  0  0  0  0  0  0  0
    0.7145   -0.4125    0.0000 C   0  0  0  0  0  0  0  0  0  0  0  0
    0.0000    0.0000    0.0000 C   0  0  0  0  0  0  0  0  0  0  0  0
    0.0000    0.8250    0.0000 C   0  0  0  0  0  0  0  0  0  0  0  0
   -0.7145    1.2375    0.0000 C   0  0  0  0  0  0  0  0  0  0  0  0
   -1.4289    0.8250    0.0000 O   0  0  0  0  0  0  0  0  0  0  0  0
    1.4289    2.4750    0.0000 R#  0  0  0  0  0  0  0  0  0  0  0  0
   -0.7145    2.0625    0.0000 R#  0  0  0  0  0  0  0  0  0  0  0  0
  1  2  1  0
  2 11  1  0
  2  3  1  0
  3  4  2  0
  4  5  1  0
  5  6  2  0
  6  7  1  0
  7  8  2  0
  3  8  1  0
  8  9  1  0
  9 12  1  0
  9 10  2  0
M  RGP  2  11   1  12   2
V   11 *
V   12 *
M  END
>  <m_name>  (222)
2-(methylamino)benzoic acid

>  <symbol>  (222)
NMe2Abz

>  <m_abbr>  (222)
NMe2Abz

>  <m_type>  (222)
aa

>  <m_subtype>  (222)
non-natural

>  <m_Rgroups>  (222)
H,OH,None,None

>  <m_RgroupIdx>  (222)
10,11,None,None

>  <m_attachmentPointIdx>  (222)
1,8,None,None

>  <natAnalog>  (222)
X

>  <pdbName>  (222)
NM0

$$$$

     RDKit          2D

  8  7  0  0  0  0  0  0  0  0999 V2000
   -0.1914    0.7145    0.0000 C   0  0  0  0  0  0  0  0  0  0  0  0
    0.5230    1.1270    0.0000 N   0  0  0  0  0  0  0  0  0  0  0  0
    1.2375    0.7145    0.0000 C   0  0  0  0  0  0  0  0  0  0  0  0
    1.9520    1.1270    0.0000 C   0  0  0  0  0  0  0  0  0  0  0  0
    2.6664    0.7145    0.0000 C   0  0  0  0  0  0  0  0  0  0  0  0
    2.6664   -0.1105    0.0000 O   0  0  0  0  0  0  0  0  0  0  0  0
    0.5230    1.9520    0.0000 R#  0  0  0  0  0  0  0  0  0  0  0  0
    3.3809    1.1270    0.0000 R#  0  0  0  0  0  0  0  0  0  0  0  0
  1  2  1  0
  2  7  1  0
  2  3  1  0
  3  4  1  0
  4  5  1  0
  5  8  1  0
  5  6  2  0
M  RGP  2   7   1   8   2
V    7 *
V    8 *
M  END
>  <m_name>  (223)
3-(methylamino)propanoic acid

>  <symbol>  (223)
NMebAla

>  <m_abbr>  (223)
NMebAla

>  <m_type>  (223)
aa

>  <m_subtype>  (223)
non-natural

>  <m_Rgroups>  (223)
H,OH,None,None

>  <m_RgroupIdx>  (223)
6,7,None,None

>  <m_attachmentPointIdx>  (223)
1,4,None,None

>  <natAnalog>  (223)
X

>  <pdbName>  (223)
NM5

$$$$

     RDKit          2D

 14 14  0  0  0  0  0  0  0  0999 V2000
    1.8414    1.7605    0.0000 C   0  0  0  0  0  0  0  0  0  0  0  0
    1.4289    2.4750    0.0000 C   0  0  0  0  0  0  0  0  0  0  0  0
    0.7145    2.0625    0.0000 C   0  0  0  0  0  0  0  0  0  0  0  0
    0.7145    1.2375    0.0000 C   0  0  0  0  0  0  0  0  0  0  0  0
    1.4289    0.8250    0.0000 C   0  0  0  0  0  0  0  0  0  0  0  0
    1.4289    0.0000    0.0000 C   0  0  0  0  0  0  0  0  0  0  0  0
    0.7145   -0.4125    0.0000 C   0  0  0  0  0  0  0  0  0  0  0  0
    0.0000    0.0000    0.0000 C   0  0  0  0  0  0  0  0  0  0  0  0
    0.0000    0.8250    0.0000 C   0  0  0  0  0  0  0  0  0  0  0  0
    1.0164    3.1895    0.0000 N   0  0  0  0  0  0  0  0  0  0  0  0
    2.1434    2.8875    0.0000 C   0  0  0  0  0  0  0  0  0  0  0  0
    2.8579    2.4750    0.0000 O   0  0  0  0  0  0  0  0  0  0  0  0
    0.1914    3.1895    0.0000 R#  0  0  0  0  0  0  0  0  0  0  0  0
    2.1434    3.7125    0.0000 R#  0  0  0  0  0  0  0  0  0  0  0  0
  2  1  1  1
  2  3  1  0
  3  4  1  0
  4  5  2  0
  5  6  1  0
  6  7  2  0
  7  8  1  0
  8  9  2  0
  4  9  1  0
  2 10  1  0
 10 13  1  0
  2 11  1  0
 11 14  1  0
 11 12  2  0
M  RGP  2  13   1  14   2
V   13 *
V   14 *
M  END
>  <m_name>  (224)
(2S)-2-amino-2-methyl-3-phenylpropanoic acid

>  <symbol>  (224)
aMePhe

>  <m_abbr>  (224)
aMePhe

>  <m_type>  (224)
aa

>  <m_subtype>  (224)
non-natural

>  <m_Rgroups>  (224)
H,OH,None,None

>  <m_RgroupIdx>  (224)
12,13,None,None

>  <m_attachmentPointIdx>  (224)
9,10,None,None

>  <natAnalog>  (224)
F

>  <pdbName>  (224)
AMK

$$$$

     RDKit          2D

 10 10  0  0  0  0  0  0  0  0999 V2000
    0.0157    1.7274    0.0000 C   0  0  0  0  0  0  0  0  0  0  0  0
    0.5678    1.1143    0.0000 C   0  0  0  0  0  0  0  0  0  0  0  0
    1.2352    0.6294    0.0000 C   0  0  0  0  0  0  0  0  0  0  0  0
    0.9803   -0.1553    0.0000 C   0  0  0  0  0  0  0  0  0  0  0  0
    0.1553   -0.1553    0.0000 C   0  0  0  0  0  0  0  0  0  0  0  0
   -0.0997    0.6294    0.0000 N   0  0  0  0  0  0  0  0  0  0  0  0
    1.1198    1.7274    0.0000 C   0  0  0  0  0  0  0  0  0  0  0  0
    1.9268    1.5559    0.0000 O   0  0  0  0  0  0  0  0  0  0  0  0
   -0.8843    0.8843    0.0000 R#  0  0  0  0  0  0  0  0  0  0  0  0
    0.8649    2.5120    0.0000 R#  0  0  0  0  0  0  0  0  0  0  0  0
  2  1  1  1
  2  3  1  0
  3  4  1  0
  4  5  1  0
  5  6  1  0
  2  6  1  0
  6  9  1  0
  2  7  1  0
  7 10  1  0
  7  8  2  0
M  RGP  2   9   1  10   2
V    9 *
V   10 *
M  END
>  <m_name>  (225)
(2S)-2-methylpyrrolidine-2-carboxylic acid

>  <symbol>  (225)
aMePro

>  <m_abbr>  (225)
aMePro

>  <m_type>  (225)
aa

>  <m_subtype>  (225)
non-natural

>  <m_Rgroups>  (225)
H,OH,None,None

>  <m_RgroupIdx>  (225)
8,9,None,None

>  <m_attachmentPointIdx>  (225)
5,6,None,None

>  <natAnalog>  (225)
P

>  <pdbName>  (225)
AIP

$$$$

     RDKit          2D

 16 16  0  0  0  0  0  0  0  0999 V2000
    1.8414    1.7605    0.0000 C   0  0  0  0  0  0  0  0  0  0  0  0
    1.4289    2.4750    0.0000 C   0  0  0  0  0  0  0  0  0  0  0  0
    0.7145    2.0625    0.0000 C   0  0  0  0  0  0  0  0  0  0  0  0
    0.7145    1.2375    0.0000 C   0  0  0  0  0  0  0  0  0  0  0  0
    1.4289    0.8250    0.0000 C   0  0  0  0  0  0  0  0  0  0  0  0
    1.4289    0.0000    0.0000 C   0  0  0  0  0  0  0  0  0  0  0  0
    0.7145   -0.4125    0.0000 C   0  0  0  0  0  0  0  0  0  0  0  0
    0.7145   -1.2375    0.0000 O   0  0  0  0  0  0  0  0  0  0  0  0
    0.0000    0.0000    0.0000 C   0  0  0  0  0  0  0  0  0  0  0  0
   -0.7145   -0.4125    0.0000 O   0  0  0  0  0  0  0  0  0  0  0  0
    0.0000    0.8250    0.0000 C   0  0  0  0  0  0  0  0  0  0  0  0
    1.0164    3.1895    0.0000 N   0  0  0  0  0  0  0  0  0  0  0  0
    2.1434    2.8875    0.0000 C   0  0  0  0  0  0  0  0  0  0  0  0
    2.8579    2.4750    0.0000 O   0  0  0  0  0  0  0  0  0  0  0  0
    0.1914    3.1895    0.0000 R#  0  0  0  0  0  0  0  0  0  0  0  0
    2.1434    3.7125    0.0000 R#  0  0  0  0  0  0  0  0  0  0  0  0
  2  1  1  1
  2  3  1  0
  3  4  1  0
  4  5  2  0
  5  6  1  0
  6  7  2  0
  7  8  1  0
  7  9  1  0
  9 10  1  0
  9 11  2  0
  4 11  1  0
  2 12  1  0
 12 15  1  0
  2 13  1  0
 13 16  1  0
 13 14  2  0
M  RGP  2  15   1  16   2
V   15 *
V   16 *
M  END
>  <m_name>  (226)
(2S)-2-amino-3-(3,4-dihydroxyphenyl)-2-methylpropanoic acid

>  <symbol>  (226)
aMeTyr_3OH

>  <m_abbr>  (226)
aMeTyr_3OH

>  <m_type>  (226)
aa

>  <m_subtype>  (226)
non-natural

>  <m_Rgroups>  (226)
H,OH,None,None

>  <m_RgroupIdx>  (226)
14,15,None,None

>  <m_attachmentPointIdx>  (226)
11,12,None,None

>  <natAnalog>  (226)
Y

>  <pdbName>  (226)
AIY

$$$$

     RDKit          2D

 14 13  0  0  0  0  0  0  0  0999 V2000
    0.8250    0.0000    0.0000 C   0  0  0  0  0  0  0  0  0  0  0  0
    1.2375   -0.7145    0.0000 C   0  0  0  0  0  0  0  0  0  0  0  0
    0.8250   -1.4289    0.0000 C   0  0  0  0  0  0  0  0  0  0  0  0
    1.2375   -2.1434    0.0000 C   0  0  0  0  0  0  0  0  0  0  0  0
    2.0625   -2.1434    0.0000 C   0  0  0  0  0  0  0  0  0  0  0  0
    2.4750   -1.4289    0.0000 C   0  0  0  0  0  0  0  0  0  0  0  0
    2.4750   -2.8579    0.0000 C   0  0  0  0  0  0  0  0  0  0  0  0
    2.0625   -3.5724    0.0000 O   0  0  0  0  0  0  0  0  0  0  0  0
    3.3000   -2.8579    0.0000 C   0  0  0  0  0  0  0  0  0  0  0  0
    3.7125   -3.5724    0.0000 N   0  0  0  0  0  0  0  0  0  0  0  0
    3.7125   -2.1434    0.0000 C   0  0  0  0  0  0  0  0  0  0  0  0
    4.5375   -2.1434    0.0000 O   0  0  0  0  0  0  0  0  0  0  0  0
    4.5375   -3.5724    0.0000 R#  0  0  0  0  0  0  0  0  0  0  0  0
    3.3000   -1.4289    0.0000 R#  0  0  0  0  0  0  0  0  0  0  0  0
  2  1  1  0
  2  3  2  3
  3  4  1  0
  5  4  1  0
  5  6  1  1
  7  5  1  0
  7  8  1  6
  7  9  1  0
  9 10  1  1
 10 13  1  0
  9 11  1  0
 11 14  1  0
 11 12  2  0
M  RGP  2  13   1  14   2
V   13 *
V   14 *
M  END
>  <m_name>  (227)
(2S,3R,4R)-2-amino-3-hydroxy-4-methyloct-6-enoic acid

>  <symbol>  (227)
Bmt

>  <m_abbr>  (227)
Bmt

>  <m_type>  (227)
aa

>  <m_subtype>  (227)
non-natural

>  <m_Rgroups>  (227)
H,OH,None,None

>  <m_RgroupIdx>  (227)
12,13,None,None

>  <m_attachmentPointIdx>  (227)
9,10,None,None

>  <natAnalog>  (227)
X

>  <pdbName>  (227)
BMY

$$$$

     RDKit          2D

 14 13  0  0  0  0  0  0  0  0999 V2000
    0.8250    0.0000    0.0000 C   0  0  0  0  0  0  0  0  0  0  0  0
    1.2375   -0.7145    0.0000 C   0  0  0  0  0  0  0  0  0  0  0  0
    0.8250   -1.4289    0.0000 C   0  0  0  0  0  0  0  0  0  0  0  0
    1.2375   -2.1434    0.0000 C   0  0  0  0  0  0  0  0  0  0  0  0
    2.0625   -2.1434    0.0000 C   0  0  0  0  0  0  0  0  0  0  0  0
    2.4750   -1.4289    0.0000 C   0  0  0  0  0  0  0  0  0  0  0  0
    2.4750   -2.8579    0.0000 C   0  0  0  0  0  0  0  0  0  0  0  0
    2.0625   -3.5724    0.0000 O   0  0  0  0  0  0  0  0  0  0  0  0
    3.3000   -2.8579    0.0000 C   0  0  0  0  0  0  0  0  0  0  0  0
    3.7125   -3.5724    0.0000 N   0  0  0  0  0  0  0  0  0  0  0  0
    3.7125   -2.1434    0.0000 C   0  0  0  0  0  0  0  0  0  0  0  0
    4.5375   -2.1434    0.0000 O   0  0  0  0  0  0  0  0  0  0  0  0
    4.5375   -3.5724    0.0000 R#  0  0  0  0  0  0  0  0  0  0  0  0
    3.3000   -1.4289    0.0000 R#  0  0  0  0  0  0  0  0  0  0  0  0
  2  1  1  0
  2  3  2  3
  3  4  1  0
  5  4  1  0
  5  6  1  1
  7  5  1  0
  7  8  1  6
  7  9  1  0
  9 10  1  1
 10 13  1  0
  9 11  1  0
 11 14  1  0
 11 12  2  0
M  RGP  2  13   1  14   2
V   13 *
V   14 *
M  END
>  <m_name>  (228)
(2S,3R,4R,6E)-2-amino-3-hydroxy-4-methyloct-6-enoic acid

>  <symbol>  (228)
Bmt_E

>  <m_abbr>  (228)
Bmt_E

>  <m_type>  (228)
aa

>  <m_subtype>  (228)
non-natural

>  <m_Rgroups>  (228)
H,OH,None,None

>  <m_RgroupIdx>  (228)
12,13,None,None

>  <m_attachmentPointIdx>  (228)
9,10,None,None

>  <natAnalog>  (228)
X

>  <pdbName>  (228)
BAD

$$$$

     RDKit          2D

 15 15  0  0  0  0  0  0  0  0999 V2000
    3.1895   -2.6664    0.0000 N   0  0  0  0  0  0  0  0  0  0  0  0
    2.7770   -1.9520    0.0000 C   0  0  0  0  0  0  0  0  0  0  0  0
    1.9520   -1.9520    0.0000 C   0  0  0  0  0  0  0  0  0  0  0  0
    1.5395   -1.2375    0.0000 S   0  0  0  0  0  0  0  0  0  0  0  0
    0.7145   -1.2375    0.0000 C   0  0  0  0  0  0  0  0  0  0  0  0
    0.3020   -0.5230    0.0000 C   0  0  0  0  0  0  0  0  0  0  0  0
   -0.5230   -0.5230    0.0000 C   0  0  0  0  0  0  0  0  0  0  0  0
   -0.9355    0.1914    0.0000 C   0  0  0  0  0  0  0  0  0  0  0  0
   -0.5230    0.9059    0.0000 C   0  0  0  0  0  0  0  0  0  0  0  0
    0.3020    0.9059    0.0000 C   0  0  0  0  0  0  0  0  0  0  0  0
    0.7145    0.1914    0.0000 C   0  0  0  0  0  0  0  0  0  0  0  0
    3.1895   -1.2375    0.0000 C   0  0  0  0  0  0  0  0  0  0  0  0
    4.0145   -1.2375    0.0000 O   0  0  0  0  0  0  0  0  0  0  0  0
    4.0145   -2.6664    0.0000 R#  0  0  0  0  0  0  0  0  0  0  0  0
    2.7770   -0.5230    0.0000 R#  0  0  0  0  0  0  0  0  0  0  0  0
 14  1  1  0
  2  1  1  0
  2  3  1  1
  3  4  1  0
  4  5  1  0
  5  6  1  0
  6  7  2  0
  7  8  1  0
  8  9  2  0
  9 10  1  0
 10 11  2  0
  6 11  1  0
  2 12  1  0
 12 15  1  0
 12 13  2  0
M  RGP  2  14   1  15   2
V   14 *
V   15 *
M  END
>  <m_name>  (229)
(2R)-2-amino-3-(benzylsulfanyl)propanoic acid

>  <symbol>  (229)
Cys_Bn

>  <m_abbr>  (229)
Cys_Bn

>  <m_type>  (229)
aa

>  <m_subtype>  (229)
non-natural

>  <m_Rgroups>  (229)
H,OH,None,None

>  <m_RgroupIdx>  (229)
13,14,None,None

>  <m_attachmentPointIdx>  (229)
0,11,None,None

>  <natAnalog>  (229)
C

>  <pdbName>  (229)
CCG

$$$$

     RDKit          2D

 14 13  0  0  0  0  0  0  0  0999 V2000
    2.1434    3.4914    0.0000 O   0  0  0  0  0  0  0  0  0  0  0  0
    2.1434    2.6664    0.0000 C   0  0  0  0  0  0  0  0  0  0  0  0
    2.8579    2.2539    0.0000 O   0  0  0  0  0  0  0  0  0  0  0  0
    1.4289    2.2539    0.0000 C   0  0  0  0  0  0  0  0  0  0  0  0
    0.7145    2.6664    0.0000 C   0  0  0  0  0  0  0  0  0  0  0  0
    0.0000    2.2539    0.0000 C   0  0  0  0  0  0  0  0  0  0  0  0
   -0.7145    2.6664    0.0000 N   0  0  0  0  0  0  0  0  0  0  0  0
    0.0000    1.4289    0.0000 C   0  0  0  0  0  0  0  0  0  0  0  0
   -0.7145    1.0164    0.0000 O   0  0  0  0  0  0  0  0  0  0  0  0
    1.4289    1.4289    0.0000 C   0  0  0  0  0  0  0  0  0  0  0  0
    1.0934    0.6753    0.0000 O   0  0  0  0  0  0  0  0  0  0  0  0
   -0.7145    3.4914    0.0000 R#  0  0  0  0  0  0  0  0  0  0  0  0
    0.7145    1.0164    0.0000 R#  0  0  0  0  0  0  0  0  0  0  0  0
    2.1434    1.0164    0.0000 R#  0  0  0  0  0  0  0  0  0  0  0  0
  1  2  1  0
  2  3  2  0
  2  4  1  0
  4  5  1  0
  6  5  1  1
  6  7  1  0
  7 12  1  0
  6  8  1  0
  8 13  1  0
  8  9  2  0
  4 10  1  0
 10 14  1  0
 10 11  2  0
M  RGP  3  12   1  13   3  14   2
V   12 *
V   13 *
V   14 *
M  END
>  <m_name>  (230)
Carboxyglutamic acid

>  <symbol>  (230)
Gla

>  <m_abbr>  (230)
Gla

>  <m_type>  (230)
aa

>  <m_subtype>  (230)
non-natural

>  <m_Rgroups>  (230)
H,OH,H,None

>  <m_RgroupIdx>  (230)
11,13,12,None

>  <m_attachmentPointIdx>  (230)
6,9,7,None

>  <natAnalog>  (230)
E

>  <pdbName>  (230)
GBB

$$$$

     RDKit          2D

 13 13  0  0  0  0  0  0  0  0999 V2000
    2.5610    0.0264    0.0000 N   0  0  0  0  0  0  0  0  0  0  0  0
    2.5610   -0.7986    0.0000 C   0  0  0  0  0  0  0  0  0  0  0  0
    1.8465   -1.2111    0.0000 C   0  0  0  0  0  0  0  0  0  0  0  0
    1.8465   -2.0361    0.0000 C   0  0  0  0  0  0  0  0  0  0  0  0
    1.1321   -2.4486    0.0000 C   0  0  0  0  0  0  0  0  0  0  0  0
    1.0458   -3.2691    0.0000 C   0  0  0  0  0  0  0  0  0  0  0  0
    0.2389   -3.4406    0.0000 N   0  0  0  0  0  0  0  0  0  0  0  0
   -0.1736   -2.7261    0.0000 C   0  0  0  0  0  0  0  0  0  0  0  0
    0.3784   -2.1130    0.0000 N   0  0  0  0  0  0  0  0  0  0  0  0
    3.2755   -1.2111    0.0000 C   0  0  0  0  0  0  0  0  0  0  0  0
    3.2755   -2.0361    0.0000 O   0  0  0  0  0  0  0  0  0  0  0  0
    3.2755    0.4389    0.0000 R#  0  0  0  0  0  0  0  0  0  0  0  0
    3.9899   -0.7986    0.0000 R#  0  0  0  0  0  0  0  0  0  0  0  0
 12  1  1  0
  2  1  1  0
  2  3  1  6
  3  4  1  0
  4  5  1  0
  5  6  2  0
  6  7  1  0
  7  8  1  0
  8  9  2  0
  5  9  1  0
  2 10  1  0
 10 13  1  0
 10 11  2  0
M  RGP  2  12   1  13   2
V   12 *
V   13 *
M  END
>  <m_name>  (231)
(2S)-2-amino-4-(1H-imidazol-4-yl)butanoic acid

>  <symbol>  (231)
hHis

>  <m_abbr>  (231)
hHis

>  <m_type>  (231)
aa

>  <m_subtype>  (231)
non-natural

>  <m_Rgroups>  (231)
H,OH,None,None

>  <m_RgroupIdx>  (231)
11,12,None,None

>  <m_attachmentPointIdx>  (231)
0,9,None,None

>  <natAnalog>  (231)
H

>  <pdbName>  (231)
HHU

$$$$

     RDKit          2D

 13 13  0  0  0  0  0  0  0  0999 V2000
    0.5678    1.9393    0.0000 C   0  0  0  0  0  0  0  0  0  0  0  0
    0.5678    1.1143    0.0000 N   0  0  0  0  0  0  0  0  0  0  0  0
    1.2352    0.6294    0.0000 C   0  0  0  0  0  0  0  0  0  0  0  0
    0.9803   -0.1553    0.0000 N   0  0  0  0  0  0  0  0  0  0  0  0
    0.1553   -0.1553    0.0000 C   0  0  0  0  0  0  0  0  0  0  0  0
   -0.3297   -0.8227    0.0000 C   0  0  0  0  0  0  0  0  0  0  0  0
    0.0059   -1.5764    0.0000 C   0  0  0  0  0  0  0  0  0  0  0  0
   -0.4790   -2.2438    0.0000 N   0  0  0  0  0  0  0  0  0  0  0  0
    0.8264   -1.6626    0.0000 C   0  0  0  0  0  0  0  0  0  0  0  0
    1.3113   -0.9952    0.0000 O   0  0  0  0  0  0  0  0  0  0  0  0
   -0.0997    0.6294    0.0000 C   0  0  0  0  0  0  0  0  0  0  0  0
   -0.1435   -2.9975    0.0000 R#  0  0  0  0  0  0  0  0  0  0  0  0
    1.1619   -2.4163    0.0000 R#  0  0  0  0  0  0  0  0  0  0  0  0
  1  2  1  0
  2  3  1  0
  3  4  2  0
  4  5  1  0
  5  6  1  0
  7  6  1  1
  7  8  1  0
  8 12  1  0
  7  9  1  0
  9 13  1  0
  9 10  2  0
  5 11  2  0
  2 11  1  0
M  RGP  2  12   1  13   2
V   12 *
V   13 *
M  END
>  <m_name>  (232)
(2S)-2-amino-3-(1-methyl-1H-imidazol-4-yl)propanoic acid

>  <symbol>  (232)
His_1Me

>  <m_abbr>  (232)
His_1Me

>  <m_type>  (232)
aa

>  <m_subtype>  (232)
non-natural

>  <m_Rgroups>  (232)
H,OH,None,None

>  <m_RgroupIdx>  (232)
11,12,None,None

>  <m_attachmentPointIdx>  (232)
7,8,None,None

>  <natAnalog>  (232)
H

>  <pdbName>  (232)
HIH

$$$$

     RDKit          2D

  9  8  0  0  0  0  0  0  0  0999 V2000
    1.9520   -1.9520    0.0000 N   0  0  0  0  0  0  0  0  0  0  0  0
    1.9520   -1.1270    0.0000 C   0  0  0  0  0  0  0  0  0  0  0  0
    1.2375   -0.7145    0.0000 C   0  0  0  0  0  0  0  0  0  0  0  0
    1.2375    0.1105    0.0000 C   0  0  0  0  0  0  0  0  0  0  0  0
    0.5230    0.5230    0.0000 C   0  0  0  0  0  0  0  0  0  0  0  0
    2.6664   -0.7145    0.0000 C   0  0  0  0  0  0  0  0  0  0  0  0
    3.3809   -1.1270    0.0000 O   0  0  0  0  0  0  0  0  0  0  0  0
    2.6664   -2.3645    0.0000 R#  0  0  0  0  0  0  0  0  0  0  0  0
    2.6664    0.1105    0.0000 R#  0  0  0  0  0  0  0  0  0  0  0  0
  8  1  1  0
  2  1  1  0
  2  3  1  1
  3  4  1  0
  4  5  2  0
  2  6  1  0
  6  9  1  0
  6  7  2  0
M  RGP  2   8   1   9   2
V    8 *
V    9 *
M  END
>  <m_name>  (233)
(2S)-2-aminopent-4-enoic acid

>  <symbol>  (233)
Gly_allyl

>  <m_abbr>  (233)
Gly_allyl

>  <m_type>  (233)
aa

>  <m_subtype>  (233)
non-natural

>  <m_Rgroups>  (233)
H,OH,None,None

>  <m_RgroupIdx>  (233)
7,8,None,None

>  <m_attachmentPointIdx>  (233)
0,5,None,None

>  <natAnalog>  (233)
G

>  <pdbName>  (233)
GBY

$$$$

     RDKit          2D

  9  9  0  0  0  0  0  0  0  0999 V2000
   -0.4763    2.1263    0.0000 N   0  0  0  0  0  0  0  0  0  0  0  0
    0.2382    1.7138    0.0000 C   0  0  0  0  0  0  0  0  0  0  0  0
    0.2382    0.8888    0.0000 C   0  0  0  0  0  0  0  0  0  0  0  0
    0.6507    0.1743    0.0000 C   0  0  0  0  0  0  0  0  0  0  0  0
   -0.1743    0.1743    0.0000 C   0  0  0  0  0  0  0  0  0  0  0  0
    0.9526    2.1263    0.0000 C   0  0  0  0  0  0  0  0  0  0  0  0
    0.9526    2.9513    0.0000 O   0  0  0  0  0  0  0  0  0  0  0  0
   -0.4763    2.9513    0.0000 R#  0  0  0  0  0  0  0  0  0  0  0  0
    1.6671    1.7138    0.0000 R#  0  0  0  0  0  0  0  0  0  0  0  0
  8  1  1  0
  2  1  1  6
  2  3  1  0
  3  4  1  0
  4  5  1  0
  3  5  1  0
  2  6  1  0
  6  9  1  0
  6  7  2  0
M  RGP  2   8   1   9   2
V    8 *
V    9 *
M  END
>  <m_name>  (234)
(2S)-2-amino-2-cyclopropylacetic acid

>  <symbol>  (234)
Gly_cPr

>  <m_abbr>  (234)
Gly_cPr

>  <m_type>  (234)
aa

>  <m_subtype>  (234)
non-natural

>  <m_Rgroups>  (234)
H,OH,None,None

>  <m_RgroupIdx>  (234)
7,8,None,None

>  <m_attachmentPointIdx>  (234)
0,5,None,None

>  <natAnalog>  (234)
G

>  <pdbName>  (234)
GCI

$$$$

     RDKit          2D

  8  8  0  0  0  0  0  0  0  0999 V2000
    0.5678    1.9393    0.0000 N   0  0  0  0  0  0  0  0  0  0  0  0
    0.5678    1.1143    0.0000 C   0  0  0  0  0  0  0  0  0  0  0  0
    1.2352    0.6294    0.0000 C   0  0  0  0  0  0  0  0  0  0  0  0
    0.9803   -0.1553    0.0000 C   0  0  0  0  0  0  0  0  0  0  0  0
    0.1553   -0.1553    0.0000 O   0  0  0  0  0  0  0  0  0  0  0  0
   -0.0997    0.6294    0.0000 C   0  0  0  0  0  0  0  0  0  0  0  0
   -0.8843    0.8843    0.0000 O   0  0  0  0  0  0  0  0  0  0  0  0
   -0.1467    2.3518    0.0000 R#  0  0  0  0  0  0  0  0  0  0  0  0
  8  1  1  0
  2  1  1  1
  2  3  1  0
  3  4  1  0
  4  5  1  0
  5  6  1  0
  2  6  1  0
  6  7  2  0
M  RGP  1   8   1
V    8 *
M  END
>  <m_name>  (235)
(3S)-3-aminooxolan-2-one

>  <symbol>  (235)
Hsl

>  <m_abbr>  (235)
Hsl

>  <m_type>  (235)
aa

>  <m_subtype>  (235)
non-natural

>  <m_Rgroups>  (235)
H,None,None,None

>  <m_RgroupIdx>  (235)
7,None,None,None

>  <m_attachmentPointIdx>  (235)
0,None,None,None

>  <natAnalog>  (235)
X

>  <pdbName>  (235)
HSN

$$$$

     RDKit          2D

 16 16  0  0  0  0  0  0  0  0999 V2000
    0.7145   -1.2375    0.0000 N   0  0  0  0  0  0  0  0  0  0  0  0
    0.7145   -0.4125    0.0000 C   0  0  0  0  0  0  0  0  0  0  0  0
    0.0000    0.0000    0.0000 C   0  0  0  0  0  0  0  0  0  0  0  0
    0.0000    0.8250    0.0000 C   0  0  0  0  0  0  0  0  0  0  0  0
    0.7145    1.2375    0.0000 C   0  0  0  0  0  0  0  0  0  0  0  0
    1.4289    0.8250    0.0000 C   0  0  0  0  0  0  0  0  0  0  0  0
    1.4289    0.0000    0.0000 C   0  0  0  0  0  0  0  0  0  0  0  0
    2.1434   -0.4125    0.0000 C   0  0  0  0  0  0  0  0  0  0  0  0
    2.8579    0.0000    0.0000 O   0  0  0  0  0  0  0  0  0  0  0  0
    2.1434   -1.2375    0.0000 C   0  0  0  0  0  0  0  0  0  0  0  0
    2.8579   -1.6500    0.0000 C   0  0  0  0  0  0  0  0  0  0  0  0
    2.8579   -2.4750    0.0000 N   0  0  0  0  0  0  0  0  0  0  0  0
    3.5724   -1.2375    0.0000 C   0  0  0  0  0  0  0  0  0  0  0  0
    4.2868   -1.6500    0.0000 O   0  0  0  0  0  0  0  0  0  0  0  0
    3.5724   -2.8875    0.0000 R#  0  0  0  0  0  0  0  0  0  0  0  0
    3.5724   -0.4125    0.0000 R#  0  0  0  0  0  0  0  0  0  0  0  0
  1  2  1  0
  2  3  2  0
  3  4  1  0
  4  5  2  0
  5  6  1  0
  6  7  2  0
  2  7  1  0
  7  8  1  0
  8  9  2  0
  8 10  1  0
 11 10  1  1
 11 12  1  0
 12 15  1  0
 11 13  1  0
 13 16  1  0
 13 14  2  0
M  RGP  2  15   1  16   2
V   15 *
V   16 *
M  END
>  <m_name>  (236)
(2S)-2-amino-4-(2-aminophenyl)-4-oxobutanoic acid

>  <symbol>  (236)
Asp_Ph2NH2

>  <m_abbr>  (236)
Asp_Ph2NH2

>  <m_type>  (236)
aa

>  <m_subtype>  (236)
non-natural

>  <m_Rgroups>  (236)
H,OH,None,None

>  <m_RgroupIdx>  (236)
14,15,None,None

>  <m_attachmentPointIdx>  (236)
11,12,None,None

>  <natAnalog>  (236)
D

>  <pdbName>  (236)
AI0

$$$$

     RDKit          2D

  7  7  0  0  0  0  0  0  0  0999 V2000
    0.2382    0.8888    0.0000 N   0  0  0  0  0  0  0  0  0  0  0  0
    0.6507    0.1743    0.0000 C   0  0  0  0  0  0  0  0  0  0  0  0
   -0.1743    0.1743    0.0000 C   0  0  0  0  0  0  0  0  0  0  0  0
   -0.8888   -0.2382    0.0000 C   0  0  0  0  0  0  0  0  0  0  0  0
   -1.6033    0.1743    0.0000 O   0  0  0  0  0  0  0  0  0  0  0  0
    0.2382    1.7138    0.0000 R#  0  0  0  0  0  0  0  0  0  0  0  0
   -0.8888   -1.0632    0.0000 R#  0  0  0  0  0  0  0  0  0  0  0  0
  6  1  1  0
  1  2  1  0
  3  2  1  0
  3  1  1  0
  3  4  1  1
  4  7  1  0
  4  5  2  0
M  RGP  2   6   1   7   2
V    6 *
V    7 *
M  END
>  <m_name>  (237)
(2S)-aziridine-2-carboxylic acid

>  <symbol>  (237)
Azi

>  <m_abbr>  (237)
Azi

>  <m_type>  (237)
aa

>  <m_subtype>  (237)
non-natural

>  <m_Rgroups>  (237)
H,OH,None,None

>  <m_RgroupIdx>  (237)
5,6,None,None

>  <m_attachmentPointIdx>  (237)
0,3,None,None

>  <natAnalog>  (237)
X

>  <pdbName>  (237)
AI4

$$$$

     RDKit          2D

 11 11  0  0  0  0  0  0  0  0999 V2000
    0.7145    2.0625    0.0000 N   0  0  0  0  0  0  0  0  0  0  0  0
    0.7145    1.2375    0.0000 C   0  0  0  0  0  0  0  0  0  0  0  0
    1.4289    0.8250    0.0000 C   0  0  0  0  0  0  0  0  0  0  0  0
    1.4289    0.0000    0.0000 C   0  0  0  0  0  0  0  0  0  0  0  0
    0.7145   -0.4125    0.0000 C   0  0  0  0  0  0  0  0  0  0  0  0
    0.0000    0.0000    0.0000 C   0  0  0  0  0  0  0  0  0  0  0  0
    0.0000    0.8250    0.0000 C   0  0  0  0  0  0  0  0  0  0  0  0
   -0.7145    1.2375    0.0000 C   0  0  0  0  0  0  0  0  0  0  0  0
   -1.4289    0.8250    0.0000 O   0  0  0  0  0  0  0  0  0  0  0  0
    0.0000    2.4750    0.0000 R#  0  0  0  0  0  0  0  0  0  0  0  0
   -0.7145    2.0625    0.0000 R#  0  0  0  0  0  0  0  0  0  0  0  0
 10  1  1  0
  1  2  1  0
  2  3  2  0
  3  4  1  0
  4  5  2  0
  5  6  1  0
  6  7  2  0
  2  7  1  0
  7  8  1  0
  8 11  1  0
  8  9  2  0
M  RGP  2  10   1  11   2
V   10 *
V   11 *
M  END
>  <m_name>  (238)
2-Aminobenzoic acid

>  <symbol>  (238)
2Abz

>  <m_abbr>  (238)
2Abz

>  <m_type>  (238)
aa

>  <m_subtype>  (238)
non-natural

>  <m_Rgroups>  (238)
H,OH,None,None

>  <m_RgroupIdx>  (238)
9,10,None,None

>  <m_attachmentPointIdx>  (238)
0,7,None,None

>  <natAnalog>  (238)
X

>  <pdbName>  (238)
2CI

$$$$

     RDKit          2D

 11 11  0  0  0  0  0  0  0  0999 V2000
    0.7145    2.0625    0.0000 N   0  0  0  0  0  0  0  0  0  0  0  0
    0.7145    1.2375    0.0000 C   0  0  0  0  0  0  0  0  0  0  0  0
    1.4289    0.8250    0.0000 C   0  0  0  0  0  0  0  0  0  0  0  0
    1.4289    0.0000    0.0000 C   0  0  0  0  0  0  0  0  0  0  0  0
    0.7145   -0.4125    0.0000 C   0  0  0  0  0  0  0  0  0  0  0  0
    0.0000    0.0000    0.0000 C   0  0  0  0  0  0  0  0  0  0  0  0
    0.0000    0.8250    0.0000 C   0  0  0  0  0  0  0  0  0  0  0  0
   -0.7145   -0.4125    0.0000 C   0  0  0  0  0  0  0  0  0  0  0  0
   -1.4289    0.0000    0.0000 O   0  0  0  0  0  0  0  0  0  0  0  0
    1.4289    2.4750    0.0000 R#  0  0  0  0  0  0  0  0  0  0  0  0
   -0.7145   -1.2375    0.0000 R#  0  0  0  0  0  0  0  0  0  0  0  0
 10  1  1  0
  1  2  1  0
  2  3  2  0
  3  4  1  0
  4  5  2  0
  5  6  1  0
  6  7  2  0
  2  7  1  0
  6  8  1  0
  8 11  1  0
  8  9  2  0
M  RGP  2  10   1  11   2
V   10 *
V   11 *
M  END
>  <m_name>  (239)
3-Aminobenzoic acid

>  <symbol>  (239)
3Abz

>  <m_abbr>  (239)
3Abz

>  <m_type>  (239)
aa

>  <m_subtype>  (239)
non-natural

>  <m_Rgroups>  (239)
H,OH,None,None

>  <m_RgroupIdx>  (239)
9,10,None,None

>  <m_attachmentPointIdx>  (239)
0,7,None,None

>  <natAnalog>  (239)
X

>  <pdbName>  (239)
3B7

$$$$

     RDKit          2D

 11 11  0  0  0  0  0  0  0  0999 V2000
    0.7145    2.0625    0.0000 N   0  0  0  0  0  0  0  0  0  0  0  0
    0.7145    1.2375    0.0000 C   0  0  0  0  0  0  0  0  0  0  0  0
    1.4289    0.8250    0.0000 C   0  0  0  0  0  0  0  0  0  0  0  0
    1.4289    0.0000    0.0000 C   0  0  0  0  0  0  0  0  0  0  0  0
    0.7145   -0.4125    0.0000 C   0  0  0  0  0  0  0  0  0  0  0  0
    0.0000    0.0000    0.0000 C   0  0  0  0  0  0  0  0  0  0  0  0
    0.0000    0.8250    0.0000 C   0  0  0  0  0  0  0  0  0  0  0  0
    0.7145   -1.2375    0.0000 C   0  0  0  0  0  0  0  0  0  0  0  0
    0.0000   -1.6500    0.0000 O   0  0  0  0  0  0  0  0  0  0  0  0
    0.0000    2.4750    0.0000 R#  0  0  0  0  0  0  0  0  0  0  0  0
    1.4289   -1.6500    0.0000 R#  0  0  0  0  0  0  0  0  0  0  0  0
 10  1  1  0
  1  2  1  0
  2  3  2  0
  3  4  1  0
  4  5  2  0
  5  6  1  0
  6  7  2  0
  2  7  1  0
  5  8  1  0
  8 11  1  0
  8  9  2  0
M  RGP  2  10   1  11   2
V   10 *
V   11 *
M  END
>  <m_name>  (240)
4-Aminobenzoic acid

>  <symbol>  (240)
4Abz

>  <m_abbr>  (240)
4Abz

>  <m_type>  (240)
aa

>  <m_subtype>  (240)
non-natural

>  <m_Rgroups>  (240)
H,OH,None,None

>  <m_RgroupIdx>  (240)
9,10,None,None

>  <m_attachmentPointIdx>  (240)
0,7,None,None

>  <natAnalog>  (240)
X

>  <pdbName>  (240)
4AI

$$$$

     RDKit          2D

  8  8  0  0  0  0  0  0  0  0999 V2000
   -0.3938    1.4191    0.0000 N   0  0  0  0  0  0  0  0  0  0  0  0
    0.2382    0.8888    0.0000 C   0  0  0  0  0  0  0  0  0  0  0  0
    0.6507    0.1743    0.0000 C   0  0  0  0  0  0  0  0  0  0  0  0
   -0.1743    0.1743    0.0000 C   0  0  0  0  0  0  0  0  0  0  0  0
    0.8701    1.4191    0.0000 C   0  0  0  0  0  0  0  0  0  0  0  0
    1.6454    1.1369    0.0000 O   0  0  0  0  0  0  0  0  0  0  0  0
   -1.1691    1.1369    0.0000 R#  0  0  0  0  0  0  0  0  0  0  0  0
    0.7269    2.2316    0.0000 R#  0  0  0  0  0  0  0  0  0  0  0  0
  7  1  1  0
  1  2  1  0
  2  3  1  0
  3  4  1  0
  2  4  1  0
  2  5  1  0
  5  8  1  0
  5  6  2  0
M  RGP  2   7   1   8   2
V    7 *
V    8 *
M  END
>  <m_name>  (241)
1-aminocyclopropane-1-carboxylic acid

>  <symbol>  (241)
Ac3c

>  <m_abbr>  (241)
Ac3c

>  <m_type>  (241)
aa

>  <m_subtype>  (241)
non-natural

>  <m_Rgroups>  (241)
H,OH,None,None

>  <m_RgroupIdx>  (241)
6,7,None,None

>  <m_attachmentPointIdx>  (241)
0,4,None,None

>  <natAnalog>  (241)
X

>  <pdbName>  (241)
AI6

$$$$

     RDKit          2D

 11 11  0  0  0  0  0  0  0  0999 V2000
    0.1842    1.8695    0.0000 N   0  0  0  0  0  0  0  0  0  0  0  0
    0.7145    1.2375    0.0000 C   0  0  0  0  0  0  0  0  0  0  0  0
    1.4289    0.8250    0.0000 C   0  0  0  0  0  0  0  0  0  0  0  0
    1.4289    0.0000    0.0000 C   0  0  0  0  0  0  0  0  0  0  0  0
    0.7145   -0.4125    0.0000 C   0  0  0  0  0  0  0  0  0  0  0  0
    0.0000    0.0000    0.0000 C   0  0  0  0  0  0  0  0  0  0  0  0
    0.0000    0.8250    0.0000 C   0  0  0  0  0  0  0  0  0  0  0  0
    1.2448    1.8695    0.0000 C   0  0  0  0  0  0  0  0  0  0  0  0
    0.9626    2.6447    0.0000 O   0  0  0  0  0  0  0  0  0  0  0  0
   -0.6283    1.7262    0.0000 R#  0  0  0  0  0  0  0  0  0  0  0  0
    2.0572    1.7262    0.0000 R#  0  0  0  0  0  0  0  0  0  0  0  0
 10  1  1  0
  1  2  1  0
  2  3  1  0
  3  4  1  0
  4  5  1  0
  5  6  1  0
  6  7  1  0
  2  7  1  0
  2  8  1  0
  8 11  1  0
  8  9  2  0
M  RGP  2  10   1  11   2
V   10 *
V   11 *
M  END
>  <m_name>  (242)
1-aminocyclohexane-1-carboxylic acid

>  <symbol>  (242)
Ac6c

>  <m_abbr>  (242)
Ac6c

>  <m_type>  (242)
aa

>  <m_subtype>  (242)
non-natural

>  <m_Rgroups>  (242)
H,OH,None,None

>  <m_RgroupIdx>  (242)
9,10,None,None

>  <m_attachmentPointIdx>  (242)
0,7,None,None

>  <natAnalog>  (242)
X

>  <pdbName>  (242)
AJC

$$$$

     RDKit          2D

  7  6  0  0  0  0  0  0  0  0999 V2000
    0.5230    1.1270    0.0000 N   0  0  0  0  0  0  0  0  0  0  0  0
    1.2375    0.7145    0.0000 C   0  0  0  0  0  0  0  0  0  0  0  0
    1.9520    1.1270    0.0000 C   0  0  0  0  0  0  0  0  0  0  0  0
    2.6664    0.7145    0.0000 C   0  0  0  0  0  0  0  0  0  0  0  0
    2.6664   -0.1105    0.0000 O   0  0  0  0  0  0  0  0  0  0  0  0
   -0.1914    0.7145    0.0000 R#  0  0  0  0  0  0  0  0  0  0  0  0
    3.3809    1.1270    0.0000 R#  0  0  0  0  0  0  0  0  0  0  0  0
  6  1  1  0
  1  2  1  0
  2  3  1  0
  3  4  1  0
  4  7  1  0
  4  5  2  0
M  RGP  2   6   1   7   2
V    6 *
V    7 *
M  END
>  <m_name>  (243)
3-aminopropanoic acid

>  <symbol>  (243)
bAla

>  <m_abbr>  (243)
bAla

>  <m_type>  (243)
aa

>  <m_subtype>  (243)
non-natural

>  <m_Rgroups>  (243)
H,OH,None,None

>  <m_RgroupIdx>  (243)
5,6,None,None

>  <m_attachmentPointIdx>  (243)
0,3,None,None

>  <natAnalog>  (243)
A

>  <pdbName>  (243)
BBD

$$$$

     RDKit          2D

 14 13  0  0  0  0  0  0  0  0999 V2000
    0.8250    0.0000    0.0000 C   0  0  0  0  0  0  0  0  0  0  0  0
    1.2375   -0.7145    0.0000 C   0  0  0  0  0  0  0  0  0  0  0  0
    0.8250   -1.4289    0.0000 C   0  0  0  0  0  0  0  0  0  0  0  0
    1.2375   -2.1434    0.0000 C   0  0  0  0  0  0  0  0  0  0  0  0
    2.0625   -2.1434    0.0000 C   0  0  0  0  0  0  0  0  0  0  0  0
    2.4750   -1.4289    0.0000 C   0  0  0  0  0  0  0  0  0  0  0  0
    2.4750   -2.8579    0.0000 C   0  0  0  0  0  0  0  0  0  0  0  0
    2.0625   -3.5724    0.0000 O   0  0  0  0  0  0  0  0  0  0  0  0
    3.3000   -2.8579    0.0000 C   0  0  0  0  0  0  0  0  0  0  0  0
    3.7125   -3.5724    0.0000 N   0  0  0  0  0  0  0  0  0  0  0  0
    3.7125   -2.1434    0.0000 C   0  0  0  0  0  0  0  0  0  0  0  0
    4.5375   -2.1434    0.0000 O   0  0  0  0  0  0  0  0  0  0  0  0
    4.5375   -3.5724    0.0000 R#  0  0  0  0  0  0  0  0  0  0  0  0
    3.3000   -1.4289    0.0000 R#  0  0  0  0  0  0  0  0  0  0  0  0
  2  1  1  0
  2  3  2  3
  3  4  1  0
  5  4  1  0
  5  6  1  6
  7  5  1  0
  7  8  1  1
  7  9  1  0
  9 10  1  6
 10 13  1  0
  9 11  1  0
 11 14  1  0
 11 12  2  0
M  RGP  2  13   1  14   2
V   13 *
V   14 *
M  END
>  <m_name>  (244)
(2R,3S,4S)-2-amino-3-hydroxy-4-methyloct-6-enoic acid

>  <symbol>  (244)
D_Bmt

>  <m_abbr>  (244)
D_Bmt

>  <m_type>  (244)
aa

>  <m_subtype>  (244)
non-natural

>  <m_Rgroups>  (244)
H,OH,None,None

>  <m_RgroupIdx>  (244)
12,13,None,None

>  <m_attachmentPointIdx>  (244)
9,10,None,None

>  <natAnalog>  (244)
X

>  <pdbName>  (244)
D1O

$$$$

     RDKit          2D

 14 13  0  0  0  0  0  0  0  0999 V2000
    0.8250    0.0000    0.0000 C   0  0  0  0  0  0  0  0  0  0  0  0
    1.2375   -0.7145    0.0000 C   0  0  0  0  0  0  0  0  0  0  0  0
    0.8250   -1.4289    0.0000 C   0  0  0  0  0  0  0  0  0  0  0  0
    1.2375   -2.1434    0.0000 C   0  0  0  0  0  0  0  0  0  0  0  0
    2.0625   -2.1434    0.0000 C   0  0  0  0  0  0  0  0  0  0  0  0
    2.4750   -1.4289    0.0000 C   0  0  0  0  0  0  0  0  0  0  0  0
    2.4750   -2.8579    0.0000 C   0  0  0  0  0  0  0  0  0  0  0  0
    2.0625   -3.5724    0.0000 O   0  0  0  0  0  0  0  0  0  0  0  0
    3.3000   -2.8579    0.0000 C   0  0  0  0  0  0  0  0  0  0  0  0
    3.7125   -3.5724    0.0000 N   0  0  0  0  0  0  0  0  0  0  0  0
    3.7125   -2.1434    0.0000 C   0  0  0  0  0  0  0  0  0  0  0  0
    4.5375   -2.1434    0.0000 O   0  0  0  0  0  0  0  0  0  0  0  0
    4.5375   -3.5724    0.0000 R#  0  0  0  0  0  0  0  0  0  0  0  0
    3.3000   -1.4289    0.0000 R#  0  0  0  0  0  0  0  0  0  0  0  0
  2  1  1  0
  2  3  2  3
  3  4  1  0
  5  4  1  0
  5  6  1  6
  7  5  1  0
  7  8  1  1
  7  9  1  0
  9 10  1  6
 10 13  1  0
  9 11  1  0
 11 14  1  0
 11 12  2  0
M  RGP  2  13   1  14   2
V   13 *
V   14 *
M  END
>  <m_name>  (245)
(2R,3S,4S,6E)-2-amino-3-hydroxy-4-methyloct-6-enoic acid

>  <symbol>  (245)
D_Bmt_E

>  <m_abbr>  (245)
D_Bmt_E

>  <m_type>  (245)
aa

>  <m_subtype>  (245)
non-natural

>  <m_Rgroups>  (245)
H,OH,None,None

>  <m_RgroupIdx>  (245)
12,13,None,None

>  <m_attachmentPointIdx>  (245)
9,10,None,None

>  <natAnalog>  (245)
X

>  <pdbName>  (245)
D4C

$$$$

     RDKit          2D

 14 13  0  0  0  0  0  0  0  0999 V2000
   -0.1127   -3.1046    0.0000 N   0  0  0  0  0  0  0  0  0  0  0  0
    0.6974   -2.9487    0.0000 C   0  0  0  0  0  0  0  0  0  0  0  0
    0.9675   -2.1692    0.0000 N   0  0  0  0  0  0  0  0  0  0  0  0
    1.2375   -3.5724    0.0000 N   0  0  0  0  0  0  0  0  0  0  0  0
    2.0476   -3.4164    0.0000 C   0  0  0  0  0  0  0  0  0  0  0  0
    2.5877   -4.0401    0.0000 C   0  0  0  0  0  0  0  0  0  0  0  0
    3.3979   -3.8842    0.0000 C   0  0  0  0  0  0  0  0  0  0  0  0
    3.9379   -4.5078    0.0000 C   0  0  0  0  0  0  0  0  0  0  0  0
    4.7481   -4.3519    0.0000 C   0  0  0  0  0  0  0  0  0  0  0  0
    5.2882   -4.9755    0.0000 N   0  0  0  0  0  0  0  0  0  0  0  0
    5.0181   -3.5724    0.0000 C   0  0  0  0  0  0  0  0  0  0  0  0
    5.8283   -3.4164    0.0000 O   0  0  0  0  0  0  0  0  0  0  0  0
    6.0983   -4.8196    0.0000 R#  0  0  0  0  0  0  0  0  0  0  0  0
    4.4780   -2.9487    0.0000 R#  0  0  0  0  0  0  0  0  0  0  0  0
  1  2  1  0
  2  3  2  0
  2  4  1  0
  4  5  1  0
  5  6  1  0
  6  7  1  0
  7  8  1  0
  9  8  1  6
  9 10  1  0
 10 13  1  0
  9 11  1  0
 11 14  1  0
 11 12  2  0
M  RGP  2  13   1  14   2
V   13 *
V   14 *
M  END
>  <m_name>  (246)
(2R)-2-amino-6-[(diaminomethylidene)amino]hexanoic acid

>  <symbol>  (246)
D_hArg

>  <m_abbr>  (246)
D_hArg

>  <m_type>  (246)
aa

>  <m_subtype>  (246)
non-natural

>  <m_Rgroups>  (246)
H,OH,None,None

>  <m_RgroupIdx>  (246)
12,13,None,None

>  <m_attachmentPointIdx>  (246)
9,10,None,None

>  <natAnalog>  (246)
R

>  <pdbName>  (246)
D4E

$$$$

     RDKit          2D

 14 14  0  0  0  0  0  0  0  0999 V2000
    0.7145    2.0625    0.0000 F   0  0  0  0  0  0  0  0  0  0  0  0
    0.7145    1.2375    0.0000 C   0  0  0  0  0  0  0  0  0  0  0  0
    1.4289    0.8250    0.0000 C   0  0  0  0  0  0  0  0  0  0  0  0
    1.4289    0.0000    0.0000 C   0  0  0  0  0  0  0  0  0  0  0  0
    0.7145   -0.4125    0.0000 C   0  0  0  0  0  0  0  0  0  0  0  0
    0.7145   -1.2375    0.0000 C   0  0  0  0  0  0  0  0  0  0  0  0
    1.4289   -1.6500    0.0000 C   0  0  0  0  0  0  0  0  0  0  0  0
    1.4289   -2.4750    0.0000 N   0  0  0  0  0  0  0  0  0  0  0  0
    2.1434   -1.2375    0.0000 C   0  0  0  0  0  0  0  0  0  0  0  0
    2.1434   -0.4125    0.0000 O   0  0  0  0  0  0  0  0  0  0  0  0
    0.0000    0.0000    0.0000 C   0  0  0  0  0  0  0  0  0  0  0  0
    0.0000    0.8250    0.0000 C   0  0  0  0  0  0  0  0  0  0  0  0
    2.1434   -2.8875    0.0000 R#  0  0  0  0  0  0  0  0  0  0  0  0
    2.8579   -1.6500    0.0000 R#  0  0  0  0  0  0  0  0  0  0  0  0
  1  2  1  0
  2  3  2  0
  3  4  1  0
  4  5  2  0
  5  6  1  0
  7  6  1  6
  7  8  1  0
  8 13  1  0
  7  9  1  0
  9 14  1  0
  9 10  2  0
  5 11  1  0
 11 12  2  0
  2 12  1  0
M  RGP  2  13   1  14   2
V   13 *
V   14 *
M  END
>  <m_name>  (247)
(2R)-2-amino-3-(4-fluorophenyl)propanoic acid

>  <symbol>  (247)
D_Phe_4F

>  <m_abbr>  (247)
D_Phe_4F

>  <m_type>  (247)
aa

>  <m_subtype>  (247)
non-natural

>  <m_Rgroups>  (247)
H,OH,None,None

>  <m_RgroupIdx>  (247)
12,13,None,None

>  <m_attachmentPointIdx>  (247)
7,8,None,None

>  <natAnalog>  (247)
F

>  <pdbName>  (247)
D5A

$$$$

     RDKit          2D

 17 18  0  0  0  0  0  0  0  0999 V2000
   -0.1712   -0.6979    0.0000 C   0  0  0  0  0  0  0  0  0  0  0  0
    0.6538   -0.6979    0.0000 C   0  0  0  0  0  0  0  0  0  0  0  0
    1.1387   -0.0305    0.0000 N   0  0  0  0  0  0  0  0  0  0  0  0
    1.9233   -0.2854    0.0000 C   0  0  0  0  0  0  0  0  0  0  0  0
    2.6378    0.1271    0.0000 C   0  0  0  0  0  0  0  0  0  0  0  0
    3.3523   -0.2854    0.0000 C   0  0  0  0  0  0  0  0  0  0  0  0
    3.3523   -1.1104    0.0000 C   0  0  0  0  0  0  0  0  0  0  0  0
    2.6378   -1.5229    0.0000 C   0  0  0  0  0  0  0  0  0  0  0  0
    1.9233   -1.1104    0.0000 C   0  0  0  0  0  0  0  0  0  0  0  0
    1.1387   -1.3654    0.0000 C   0  0  0  0  0  0  0  0  0  0  0  0
    0.8838   -2.1500    0.0000 C   0  0  0  0  0  0  0  0  0  0  0  0
    1.4358   -2.7631    0.0000 C   0  0  0  0  0  0  0  0  0  0  0  0
    2.2428   -2.5916    0.0000 N   0  0  0  0  0  0  0  0  0  0  0  0
    1.1809   -3.5477    0.0000 C   0  0  0  0  0  0  0  0  0  0  0  0
    0.3739   -3.7192    0.0000 O   0  0  0  0  0  0  0  0  0  0  0  0
    2.7948   -3.2047    0.0000 R#  0  0  0  0  0  0  0  0  0  0  0  0
    1.7329   -4.1608    0.0000 R#  0  0  0  0  0  0  0  0  0  0  0  0
  1  2  1  0
  2  3  1  0
  3  4  1  0
  4  5  2  0
  5  6  1  0
  6  7  2  0
  7  8  1  0
  8  9  2  0
  4  9  1  0
  9 10  1  0
  2 10  2  0
 10 11  1  0
 12 11  1  1
 12 13  1  0
 13 16  1  0
 12 14  1  0
 14 17  1  0
 14 15  2  0
M  RGP  2  16   1  17   2
V   16 *
V   17 *
M  END
>  <m_name>  (248)
(2R)-2-amino-3-(2-methyl-1H-indol-3-yl)propanoic acid

>  <symbol>  (248)
D_Trp_2Me

>  <m_abbr>  (248)
D_Trp_2Me

>  <m_type>  (248)
aa

>  <m_subtype>  (248)
non-natural

>  <m_Rgroups>  (248)
H,OH,None,None

>  <m_RgroupIdx>  (248)
15,16,None,None

>  <m_attachmentPointIdx>  (248)
12,13,None,None

>  <natAnalog>  (248)
W

>  <pdbName>  (248)
D5D

$$$$

     RDKit          2D

 15 15  0  0  0  0  0  0  0  0999 V2000
   -0.7145    3.7125    0.0000 O   0  0  0  0  0  0  0  0  0  0  0  0
    0.0000    3.3000    0.0000 C   0  0  0  0  0  0  0  0  0  0  0  0
    0.7145    3.7125    0.0000 O   0  0  0  0  0  0  0  0  0  0  0  0
    0.0000    2.4750    0.0000 C   0  0  0  0  0  0  0  0  0  0  0  0
    0.7145    2.0625    0.0000 C   0  0  0  0  0  0  0  0  0  0  0  0
    0.7145    1.2375    0.0000 C   0  0  0  0  0  0  0  0  0  0  0  0
    1.4289    0.8250    0.0000 C   0  0  0  0  0  0  0  0  0  0  0  0
    1.4289    0.0000    0.0000 C   0  0  0  0  0  0  0  0  0  0  0  0
    0.7145   -0.4125    0.0000 C   0  0  0  0  0  0  0  0  0  0  0  0
    0.7145   -1.2375    0.0000 O   0  0  0  0  0  0  0  0  0  0  0  0
    0.0000    0.0000    0.0000 C   0  0  0  0  0  0  0  0  0  0  0  0
   -0.7145   -0.4125    0.0000 O   0  0  0  0  0  0  0  0  0  0  0  0
    0.0000    0.8250    0.0000 C   0  0  0  0  0  0  0  0  0  0  0  0
   -0.7145    2.0625    0.0000 N   0  0  0  0  0  0  0  0  0  0  0  0
   -0.7145    1.2375    0.0000 R#  0  0  0  0  0  0  0  0  0  0  0  0
  1  2  1  0
  2  3  2  0
  4  2  1  0
  4  5  1  1
  5  6  1  0
  6  7  2  0
  7  8  1  0
  8  9  2  0
  9 10  1  0
  9 11  1  0
 11 12  1  0
 11 13  2  0
  6 13  1  0
  4 14  1  0
 14 15  1  0
M  RGP  1  15   1
V   15 *
M  END
>  <m_name>  (249)
(2R)-2-amino-3-(3,4-dihydroxyphenyl)propanoic acid

>  <symbol>  (249)
D_Tyr_3OH

>  <m_abbr>  (249)
D_Tyr_3OH

>  <m_type>  (249)
aa

>  <m_subtype>  (249)
non-natural

>  <m_Rgroups>  (249)
H,None,None,None

>  <m_RgroupIdx>  (249)
14,None,None,None

>  <m_attachmentPointIdx>  (249)
13,None,None,None

>  <natAnalog>  (249)
Y

>  <pdbName>  (249)
D5J

$$$$

     RDKit          2D

 15 15  0  0  0  0  0  0  0  0999 V2000
    0.0000    2.4750    0.0000 C   0  0  0  0  0  0  0  0  0  0  0  0
    0.7145    2.0625    0.0000 O   0  0  0  0  0  0  0  0  0  0  0  0
    0.7145    1.2375    0.0000 C   0  0  0  0  0  0  0  0  0  0  0  0
    1.4289    0.8250    0.0000 C   0  0  0  0  0  0  0  0  0  0  0  0
    1.4289    0.0000    0.0000 C   0  0  0  0  0  0  0  0  0  0  0  0
    0.7145   -0.4125    0.0000 C   0  0  0  0  0  0  0  0  0  0  0  0
    0.7145   -1.2375    0.0000 C   0  0  0  0  0  0  0  0  0  0  0  0
    1.4289   -1.6500    0.0000 C   0  0  0  0  0  0  0  0  0  0  0  0
    1.4289   -2.4750    0.0000 N   0  0  0  0  0  0  0  0  0  0  0  0
    2.1434   -1.2375    0.0000 C   0  0  0  0  0  0  0  0  0  0  0  0
    2.1434   -0.4125    0.0000 O   0  0  0  0  0  0  0  0  0  0  0  0
    0.0000    0.0000    0.0000 C   0  0  0  0  0  0  0  0  0  0  0  0
    0.0000    0.8250    0.0000 C   0  0  0  0  0  0  0  0  0  0  0  0
    2.1434   -2.8875    0.0000 R#  0  0  0  0  0  0  0  0  0  0  0  0
    2.8579   -1.6500    0.0000 R#  0  0  0  0  0  0  0  0  0  0  0  0
  1  2  1  0
  2  3  1  0
  3  4  2  0
  4  5  1  0
  5  6  2  0
  6  7  1  0
  8  7  1  6
  8  9  1  0
  9 14  1  0
  8 10  1  0
 10 15  1  0
 10 11  2  0
  6 12  1  0
 12 13  2  0
  3 13  1  0
M  RGP  2  14   1  15   2
V   14 *
V   15 *
M  END
>  <m_name>  (250)
(2R)-2-amino-3-(4-methoxyphenyl)propanoic acid

>  <symbol>  (250)
D_Tyr_Me

>  <m_abbr>  (250)
D_Tyr_Me

>  <m_type>  (250)
aa

>  <m_subtype>  (250)
non-natural

>  <m_Rgroups>  (250)
H,OH,None,None

>  <m_RgroupIdx>  (250)
13,14,None,None

>  <m_attachmentPointIdx>  (250)
8,9,None,None

>  <natAnalog>  (250)
Y

>  <pdbName>  (250)
D5K

$$$$

     RDKit          2D

 10  9  0  0  0  0  0  0  0  0999 V2000
    0.5230    0.5230    0.0000 C   0  0  0  0  0  0  0  0  0  0  0  0
    1.2375    0.1105    0.0000 C   0  0  0  0  0  0  0  0  0  0  0  0
    1.2375   -0.7145    0.0000 C   0  0  0  0  0  0  0  0  0  0  0  0
    0.5230   -1.1270    0.0000 C   0  0  0  0  0  0  0  0  0  0  0  0
    1.9520   -1.1270    0.0000 C   0  0  0  0  0  0  0  0  0  0  0  0
    1.9520   -1.9520    0.0000 N   0  0  0  0  0  0  0  0  0  0  0  0
    2.6664   -0.7145    0.0000 C   0  0  0  0  0  0  0  0  0  0  0  0
    3.3809   -1.1270    0.0000 O   0  0  0  0  0  0  0  0  0  0  0  0
    2.6664   -2.3645    0.0000 R#  0  0  0  0  0  0  0  0  0  0  0  0
    2.6664    0.1105    0.0000 R#  0  0  0  0  0  0  0  0  0  0  0  0
  1  2  1  0
  2  3  1  0
  3  4  1  0
  5  3  1  0
  5  6  1  6
  6  9  1  0
  5  7  1  0
  7 10  1  0
  7  8  2  0
M  RGP  2   9   1  10   2
V    9 *
V   10 *
M  END
>  <m_name>  (251)
(2R)-2-amino-3-methylpentanoic acid

>  <symbol>  (251)
D_xiIle

>  <m_abbr>  (251)
D_xiIle

>  <m_type>  (251)
aa

>  <m_subtype>  (251)
non-natural

>  <m_Rgroups>  (251)
H,OH,None,None

>  <m_RgroupIdx>  (251)
8,9,None,None

>  <m_attachmentPointIdx>  (251)
5,6,None,None

>  <natAnalog>  (251)
I

>  <pdbName>  (251)
D5L

$$$$

     RDKit          2D

 14 13  0  0  0  0  0  0  0  0999 V2000
   -0.1127   -3.1046    0.0000 C   0  0  0  0  0  0  0  0  0  0  0  0
    0.6974   -2.9487    0.0000 C   0  0  0  0  0  0  0  0  0  0  0  0
    0.9675   -2.1692    0.0000 C   0  0  0  0  0  0  0  0  0  0  0  0
    1.2375   -3.5724    0.0000 N   0  0  0  0  0  0  0  0  0  0  0  0
    2.0476   -3.4164    0.0000 C   0  0  0  0  0  0  0  0  0  0  0  0
    2.5877   -4.0401    0.0000 C   0  0  0  0  0  0  0  0  0  0  0  0
    3.3979   -3.8842    0.0000 C   0  0  0  0  0  0  0  0  0  0  0  0
    3.9379   -4.5078    0.0000 C   0  0  0  0  0  0  0  0  0  0  0  0
    4.7481   -4.3519    0.0000 C   0  0  0  0  0  0  0  0  0  0  0  0
    5.2882   -4.9755    0.0000 N   0  0  0  0  0  0  0  0  0  0  0  0
    5.0181   -3.5724    0.0000 C   0  0  0  0  0  0  0  0  0  0  0  0
    5.8283   -3.4164    0.0000 O   0  0  0  0  0  0  0  0  0  0  0  0
    6.0983   -4.8196    0.0000 R#  0  0  0  0  0  0  0  0  0  0  0  0
    4.4780   -2.9487    0.0000 R#  0  0  0  0  0  0  0  0  0  0  0  0
  1  2  1  0
  2  3  1  0
  2  4  1  0
  4  5  1  0
  5  6  1  0
  6  7  1  0
  7  8  1  0
  9  8  1  1
  9 10  1  0
 10 13  1  0
  9 11  1  0
 11 14  1  0
 11 12  2  0
M  RGP  2  13   1  14   2
V   13 *
V   14 *
M  END
>  <m_name>  (252)
(2S)-2-amino-6-[(propan-2-yl)amino]hexanoic acid

>  <symbol>  (252)
Lys_iPr

>  <m_abbr>  (252)
Lys_iPr

>  <m_type>  (252)
aa

>  <m_subtype>  (252)
non-natural

>  <m_Rgroups>  (252)
H,OH,None,None

>  <m_RgroupIdx>  (252)
12,13,None,None

>  <m_attachmentPointIdx>  (252)
9,10,None,None

>  <natAnalog>  (252)
K

>  <pdbName>  (252)
LA5

$$$$

     RDKit          2D

  8  8  0  0  0  0  0  0  0  0999 V2000
    0.7145    2.0625    0.0000 C   0  0  0  0  0  0  0  0  0  0  0  0
    0.7145    1.2375    0.0000 C   0  0  0  0  0  0  0  0  0  0  0  0
    1.4289    0.8250    0.0000 C   0  0  0  0  0  0  0  0  0  0  0  0
    1.4289    0.0000    0.0000 C   0  0  0  0  0  0  0  0  0  0  0  0
    0.7145   -0.4125    0.0000 C   0  0  0  0  0  0  0  0  0  0  0  0
    0.0000    0.0000    0.0000 C   0  0  0  0  0  0  0  0  0  0  0  0
    0.0000    0.8250    0.0000 C   0  0  0  0  0  0  0  0  0  0  0  0
    0.0000    2.4750    0.0000 R#  0  0  0  0  0  0  0  0  0  0  0  0
  8  1  1  0
  1  2  1  0
  2  3  2  0
  3  4  1  0
  4  5  2  0
  5  6  1  0
  6  7  2  0
  2  7  1  0
M  RGP  1   8   1
V    8 *
M  END
>  <m_name>  (253)
C-Terminal toluene

>  <symbol>  (253)
_Bn

>  <m_abbr>  (253)
_Bn

>  <m_type>  (253)
aa

>  <m_subtype>  (253)
aa

>  <m_Rgroups>  (253)
H,None,None,None

>  <m_RgroupIdx>  (253)
7,None,None,None

>  <m_attachmentPointIdx>  (253)
0,None,None,None

>  <natAnalog>  (253)
X

>  <pdbName>  (253)
BN0

$$$$

     RDKit          2D

  9  9  0  0  0  0  0  0  0  0999 V2000
    0.0000    2.4750    0.0000 O   0  0  0  0  0  0  0  0  0  0  0  0
    0.7145    2.0625    0.0000 C   0  0  0  0  0  0  0  0  0  0  0  0
    0.7145    1.2375    0.0000 C   0  0  0  0  0  0  0  0  0  0  0  0
    1.4289    0.8250    0.0000 C   0  0  0  0  0  0  0  0  0  0  0  0
    1.4289    0.0000    0.0000 C   0  0  0  0  0  0  0  0  0  0  0  0
    0.7145   -0.4125    0.0000 C   0  0  0  0  0  0  0  0  0  0  0  0
    0.0000    0.0000    0.0000 C   0  0  0  0  0  0  0  0  0  0  0  0
    0.0000    0.8250    0.0000 C   0  0  0  0  0  0  0  0  0  0  0  0
    0.0000    3.3000    0.0000 R#  0  0  0  0  0  0  0  0  0  0  0  0
  9  1  1  0
  1  2  1  0
  2  3  1  0
  3  4  2  0
  4  5  1  0
  5  6  2  0
  6  7  1  0
  7  8  2  0
  3  8  1  0
M  RGP  1   9   1
V    9 *
M  END
>  <m_name>  (254)
C-Terminal phenylmethanol

>  <symbol>  (254)
_OBn

>  <m_abbr>  (254)
_OBn

>  <m_type>  (254)
aa

>  <m_subtype>  (254)
aa

>  <m_Rgroups>  (254)
H,None,None,None

>  <m_RgroupIdx>  (254)
8,None,None,None

>  <m_attachmentPointIdx>  (254)
0,None,None,None

>  <natAnalog>  (254)
X

>  <pdbName>  (254)
OBJ

$$$$

     RDKit          2D

  7  7  0  0  0  0  0  0  0  0999 V2000
    0.7145    1.2375    0.0000 C   0  0  0  0  0  0  0  0  0  0  0  0
    1.4289    0.8250    0.0000 C   0  0  0  0  0  0  0  0  0  0  0  0
    1.4289    0.0000    0.0000 C   0  0  0  0  0  0  0  0  0  0  0  0
    0.7145   -0.4125    0.0000 C   0  0  0  0  0  0  0  0  0  0  0  0
    0.0000    0.0000    0.0000 C   0  0  0  0  0  0  0  0  0  0  0  0
    0.0000    0.8250    0.0000 C   0  0  0  0  0  0  0  0  0  0  0  0
    0.7145    2.0625    0.0000 R#  0  0  0  0  0  0  0  0  0  0  0  0
  7  1  1  0
  1  2  2  0
  2  3  1  0
  3  4  2  0
  4  5  1  0
  5  6  2  0
  1  6  1  0
M  RGP  1   7   1
V    7 *
M  END
>  <m_name>  (255)
Phenyl

>  <symbol>  (255)
Ph

>  <m_abbr>  (255)
Ph

>  <m_type>  (255)
aa

>  <m_subtype>  (255)
aa

>  <m_Rgroups>  (255)
H,None,None,None

>  <m_RgroupIdx>  (255)
6,None,None,None

>  <m_attachmentPointIdx>  (255)
0,None,None,None

>  <natAnalog>  (255)
X

>  <pdbName>  (255)
PKH

$$$$

     RDKit          2D

  8  7  0  0  0  0  0  0  0  0999 V2000
    0.4125    2.1434    0.0000 C   0  0  0  0  0  0  0  0  0  0  0  0
    0.8250    1.4289    0.0000 C   0  0  0  0  0  0  0  0  0  0  0  0
    0.1105    1.0164    0.0000 C   0  0  0  0  0  0  0  0  0  0  0  0
    1.5395    1.8414    0.0000 C   0  0  0  0  0  0  0  0  0  0  0  0
    1.2375    0.7145    0.0000 O   0  0  0  0  0  0  0  0  0  0  0  0
    0.8250    0.0000    0.0000 C   0  0  0  0  0  0  0  0  0  0  0  0
    0.0000    0.0000    0.0000 O   0  0  0  0  0  0  0  0  0  0  0  0
    1.2375   -0.7145    0.0000 R#  0  0  0  0  0  0  0  0  0  0  0  0
  1  2  1  0
  2  3  1  0
  2  4  1  0
  2  5  1  0
  5  6  1  0
  6  8  1  0
  6  7  2  0
M  RGP  1   8   2
V    8 *
M  END
>  <m_name>  (256)
Tert-butyloxycarbonyl

>  <symbol>  (256)
Boc

>  <m_abbr>  (256)
Boc

>  <m_type>  (256)
aa

>  <m_subtype>  (256)
aa

>  <m_Rgroups>  (256)
None,OH,None,None

>  <m_RgroupIdx>  (256)
None,7,None,None

>  <m_attachmentPointIdx>  (256)
None,5,None,None

>  <natAnalog>  (256)
X

>  <pdbName>  (256)
BOK

$$$$

     RDKit          2D

  8  7  0  0  0  0  0  0  0  0999 V2000
    0.0000   -1.4289    0.0000 C   0  0  0  0  0  0  0  0  0  0  0  0
    0.8250   -1.4289    0.0000 C   0  0  0  0  0  0  0  0  0  0  0  0
    1.2375   -0.7145    0.0000 C   0  0  0  0  0  0  0  0  0  0  0  0
    2.0625   -0.7145    0.0000 S   0  0  0  0  0  0  0  0  0  0  0  0
    0.8250    0.0000    0.0000 C   0  0  0  0  0  0  0  0  0  0  0  0
    0.0000    0.0000    0.0000 O   0  0  0  0  0  0  0  0  0  0  0  0
    2.4750    0.0000    0.0000 R#  0  0  0  0  0  0  0  0  0  0  0  0
    1.2375    0.7145    0.0000 R#  0  0  0  0  0  0  0  0  0  0  0  0
  1  2  1  0
  3  2  1  1
  3  4  1  0
  4  7  1  0
  3  5  1  0
  5  8  1  0
  5  6  2  0
M  RGP  2   7   3   8   2
V    7 *
V    8 *
M  END
>  <m_name>  (257)
Mercaptobutanoic acid

>  <symbol>  (257)
Mba

>  <m_abbr>  (257)
Mba

>  <m_type>  (257)
aa

>  <m_subtype>  (257)
aa

>  <m_Rgroups>  (257)
None,OH,None,None

>  <m_RgroupIdx>  (257)
None,7,6,None

>  <m_attachmentPointIdx>  (257)
None,4,3,None

>  <natAnalog>  (257)
X

>  <pdbName>  (257)
MHP

$$$$

     RDKit          2D

  8  7  0  0  0  0  0  0  0  0999 V2000
   -0.1914    0.7145    0.0000 C   0  0  0  0  0  0  0  0  0  0  0  0
    0.5230    1.1270    0.0000 C   0  0  0  0  0  0  0  0  0  0  0  0
    1.2375    0.7145    0.0000 C   0  0  0  0  0  0  0  0  0  0  0  0
    1.9520    1.1270    0.0000 C   0  0  0  0  0  0  0  0  0  0  0  0
    1.9520    1.9520    0.0000 O   0  0  0  0  0  0  0  0  0  0  0  0
    2.6664    0.7145    0.0000 C   0  0  0  0  0  0  0  0  0  0  0  0
    2.6664   -0.1105    0.0000 O   0  0  0  0  0  0  0  0  0  0  0  0
    3.3809    1.1270    0.0000 R#  0  0  0  0  0  0  0  0  0  0  0  0
  1  2  1  0
  2  3  1  0
  4  3  1  0
  4  5  1  6
  4  6  1  0
  6  8  1  0
  6  7  2  0
M  RGP  1   8   2
V    8 *
M  END
>  <m_name>  (258)
2-Hydroxypentanoic acid

>  <symbol>  (258)
Hva

>  <m_abbr>  (258)
Hva

>  <m_type>  (258)
aa

>  <m_subtype>  (258)
aa

>  <m_Rgroups>  (258)
None,OH,None,None

>  <m_RgroupIdx>  (258)
None,7,None,None

>  <m_attachmentPointIdx>  (258)
None,5,None,None

>  <natAnalog>  (258)
X

>  <pdbName>  (258)
HVC

$$$$

     RDKit          2D

 10 10  0  0  0  0  0  0  0  0999 V2000
    0.0000    2.4750    0.0000 C   0  0  0  0  0  0  0  0  0  0  0  0
   -0.7145    2.0625    0.0000 O   0  0  0  0  0  0  0  0  0  0  0  0
    0.7145    2.0625    0.0000 C   0  0  0  0  0  0  0  0  0  0  0  0
    0.7145    1.2375    0.0000 C   0  0  0  0  0  0  0  0  0  0  0  0
    1.4289    0.8250    0.0000 C   0  0  0  0  0  0  0  0  0  0  0  0
    1.4289    0.0000    0.0000 C   0  0  0  0  0  0  0  0  0  0  0  0
    0.7145   -0.4125    0.0000 C   0  0  0  0  0  0  0  0  0  0  0  0
    0.0000    0.0000    0.0000 C   0  0  0  0  0  0  0  0  0  0  0  0
    0.0000    0.8250    0.0000 C   0  0  0  0  0  0  0  0  0  0  0  0
    0.0000    3.3000    0.0000 R#  0  0  0  0  0  0  0  0  0  0  0  0
 10  1  1  0
  1  2  2  0
  1  3  1  0
  3  4  1  0
  4  5  1  0
  5  6  1  0
  6  7  1  0
  7  8  1  0
  8  9  1  0
  4  9  1  0
M  RGP  1  10   2
V   10 *
M  END
>  <m_name>  (259)
2-cyclohexylacetic acid

>  <symbol>  (259)
deamino_Chg

>  <m_abbr>  (259)
deamino_Chg

>  <m_type>  (259)
aa

>  <m_subtype>  (259)
aa

>  <m_Rgroups>  (259)
None,OH,None,None

>  <m_RgroupIdx>  (259)
None,9,None,None

>  <m_attachmentPointIdx>  (259)
None,0,None,None

>  <natAnalog>  (259)
X

>  <pdbName>  (259)
D5P

$$$$

     RDKit          2D

 17 18  0  0  0  0  0  0  0  0999 V2000
    1.4289    0.8250    0.0000 C   0  0  0  0  0  0  0  0  0  0  0  0
    2.1434    1.2375    0.0000 O   0  0  0  0  0  0  0  0  0  0  0  0
    1.4289    0.0000    0.0000 C   0  0  0  0  0  0  0  0  0  0  0  0
    2.1434   -0.4125    0.0000 C   0  0  0  0  0  0  0  0  0  0  0  0
    2.1434   -1.2375    0.0000 C   0  0  0  0  0  0  0  0  0  0  0  0
    2.8579   -1.6500    0.0000 C   0  0  0  0  0  0  0  0  0  0  0  0
    2.8579   -2.4750    0.0000 C   0  0  0  0  0  0  0  0  0  0  0  0
    2.1434   -2.8875    0.0000 C   0  0  0  0  0  0  0  0  0  0  0  0
    1.4289   -2.4750    0.0000 C   0  0  0  0  0  0  0  0  0  0  0  0
    1.4289   -1.6500    0.0000 C   0  0  0  0  0  0  0  0  0  0  0  0
    2.8579    0.0000    0.0000 C   0  0  0  0  0  0  0  0  0  0  0  0
    2.8579    0.8250    0.0000 C   0  0  0  0  0  0  0  0  0  0  0  0
    3.5724    1.2375    0.0000 C   0  0  0  0  0  0  0  0  0  0  0  0
    4.2868    0.8250    0.0000 C   0  0  0  0  0  0  0  0  0  0  0  0
    4.2868    0.0000    0.0000 C   0  0  0  0  0  0  0  0  0  0  0  0
    3.5724   -0.4125    0.0000 C   0  0  0  0  0  0  0  0  0  0  0  0
    0.7145    1.2375    0.0000 R#  0  0  0  0  0  0  0  0  0  0  0  0
 17  1  1  0
  1  2  2  0
  1  3  1  0
  3  4  1  0
  4  5  1  0
  5  6  2  0
  6  7  1  0
  7  8  2  0
  8  9  1  0
  9 10  2  0
  5 10  1  0
  4 11  1  0
 11 12  2  0
 12 13  1  0
 13 14  2  0
 14 15  1  0
 15 16  2  0
 11 16  1  0
M  RGP  1  17   2
V   17 *
M  END
>  <m_name>  (260)
3,3-diphenylpropanoic acid

>  <symbol>  (260)
deamino_Dip

>  <m_abbr>  (260)
deamino_Dip

>  <m_type>  (260)
aa

>  <m_subtype>  (260)
aa

>  <m_Rgroups>  (260)
None,OH,None,None

>  <m_RgroupIdx>  (260)
None,16,None,None

>  <m_attachmentPointIdx>  (260)
None,0,None,None

>  <natAnalog>  (260)
X

>  <pdbName>  (260)
D5R

$$$$

     RDKit          2D

  8  7  0  0  0  0  0  0  0  0999 V2000
    0.4125    2.1434    0.0000 C   0  0  0  0  0  0  0  0  0  0  0  0
    0.8250    1.4289    0.0000 C   0  0  0  0  0  0  0  0  0  0  0  0
    0.1105    1.0164    0.0000 C   0  0  0  0  0  0  0  0  0  0  0  0
    1.5395    1.8414    0.0000 C   0  0  0  0  0  0  0  0  0  0  0  0
    1.2375    0.7145    0.0000 C   0  0  0  0  0  0  0  0  0  0  0  0
    0.8250    0.0000    0.0000 C   0  0  0  0  0  0  0  0  0  0  0  0
    0.0000    0.0000    0.0000 O   0  0  0  0  0  0  0  0  0  0  0  0
    1.2375   -0.7145    0.0000 R#  0  0  0  0  0  0  0  0  0  0  0  0
  1  2  1  0
  2  3  1  0
  2  4  1  0
  2  5  1  0
  5  6  1  0
  6  8  1  0
  6  7  2  0
M  RGP  1   8   2
V    8 *
M  END
>  <m_name>  (261)
3,3-dimethylbutanoic acid

>  <symbol>  (261)
deamino_Gly_tBu

>  <m_abbr>  (261)
deamino_Gly_tBu

>  <m_type>  (261)
aa

>  <m_subtype>  (261)
aa

>  <m_Rgroups>  (261)
None,OH,None,None

>  <m_RgroupIdx>  (261)
None,7,None,None

>  <m_attachmentPointIdx>  (261)
None,5,None,None

>  <natAnalog>  (261)
G

>  <pdbName>  (261)
D5S

$$$$

     RDKit          2D

 12 12  0  0  0  0  0  0  0  0999 V2000
    0.7145   -2.8875    0.0000 C   0  0  0  0  0  0  0  0  0  0  0  0
    0.7145   -3.7125    0.0000 O   0  0  0  0  0  0  0  0  0  0  0  0
    1.4289   -2.4750    0.0000 C   0  0  0  0  0  0  0  0  0  0  0  0
    2.1434   -2.8875    0.0000 C   0  0  0  0  0  0  0  0  0  0  0  0
    2.8579   -2.4750    0.0000 C   0  0  0  0  0  0  0  0  0  0  0  0
    3.5724   -2.8875    0.0000 C   0  0  0  0  0  0  0  0  0  0  0  0
    4.2868   -2.4750    0.0000 C   0  0  0  0  0  0  0  0  0  0  0  0
    5.0013   -2.8875    0.0000 C   0  0  0  0  0  0  0  0  0  0  0  0
    5.0013   -3.7125    0.0000 C   0  0  0  0  0  0  0  0  0  0  0  0
    4.2868   -4.1250    0.0000 C   0  0  0  0  0  0  0  0  0  0  0  0
    3.5724   -3.7125    0.0000 C   0  0  0  0  0  0  0  0  0  0  0  0
    0.0000   -2.4750    0.0000 R#  0  0  0  0  0  0  0  0  0  0  0  0
 12  1  1  0
  1  2  2  0
  1  3  1  0
  3  4  1  0
  4  5  1  0
  5  6  1  0
  6  7  2  0
  7  8  1  0
  8  9  2  0
  9 10  1  0
 10 11  2  0
  6 11  1  0
M  RGP  1  12   2
V   12 *
M  END
>  <m_name>  (262)
4-phenylbutanoic acid

>  <symbol>  (262)
deamino_hPhe

>  <m_abbr>  (262)
deamino_hPhe

>  <m_type>  (262)
aa

>  <m_subtype>  (262)
aa

>  <m_Rgroups>  (262)
None,OH,None,None

>  <m_RgroupIdx>  (262)
None,11,None,None

>  <m_attachmentPointIdx>  (262)
None,0,None,None

>  <natAnalog>  (262)
F

>  <pdbName>  (262)
D6B

$$$$

     RDKit          2D

 12 12  0  0  0  0  0  0  0  0999 V2000
    0.0000    2.4750    0.0000 C   0  0  0  0  0  0  0  0  0  0  0  0
    0.7145    2.0625    0.0000 O   0  0  0  0  0  0  0  0  0  0  0  0
    0.7145    1.2375    0.0000 C   0  0  0  0  0  0  0  0  0  0  0  0
    1.4289    0.8250    0.0000 C   0  0  0  0  0  0  0  0  0  0  0  0
    1.4289    0.0000    0.0000 C   0  0  0  0  0  0  0  0  0  0  0  0
    0.7145   -0.4125    0.0000 C   0  0  0  0  0  0  0  0  0  0  0  0
    0.7145   -1.2375    0.0000 C   0  0  0  0  0  0  0  0  0  0  0  0
    0.0000   -1.6500    0.0000 C   0  0  0  0  0  0  0  0  0  0  0  0
   -0.7145   -1.2375    0.0000 O   0  0  0  0  0  0  0  0  0  0  0  0
    0.0000    0.0000    0.0000 C   0  0  0  0  0  0  0  0  0  0  0  0
    0.0000    0.8250    0.0000 C   0  0  0  0  0  0  0  0  0  0  0  0
    0.0000   -2.4750    0.0000 R#  0  0  0  0  0  0  0  0  0  0  0  0
  1  2  1  0
  2  3  1  0
  3  4  2  0
  4  5  1  0
  5  6  2  0
  6  7  1  0
  7  8  1  0
  8 12  1  0
  8  9  2  0
  6 10  1  0
 10 11  2  0
  3 11  1  0
M  RGP  1  12   2
V   12 *
M  END
>  <m_name>  (263)
2-(4-methoxyphenyl)acetic acid

>  <symbol>  (263)
deamino_nTyr_Me

>  <m_abbr>  (263)
deamino_nTyr_Me

>  <m_type>  (263)
aa

>  <m_subtype>  (263)
aa

>  <m_Rgroups>  (263)
None,OH,None,None

>  <m_RgroupIdx>  (263)
None,11,None,None

>  <m_attachmentPointIdx>  (263)
None,7,None,None

>  <natAnalog>  (263)
Y

>  <pdbName>  (263)
D6H

$$$$

     RDKit          2D

 11 11  0  0  0  0  0  0  0  0999 V2000
    0.7145    2.0625    0.0000 Cl  0  0  0  0  0  0  0  0  0  0  0  0
    0.7145    1.2375    0.0000 C   0  0  0  0  0  0  0  0  0  0  0  0
    1.4289    0.8250    0.0000 C   0  0  0  0  0  0  0  0  0  0  0  0
    1.4289    0.0000    0.0000 C   0  0  0  0  0  0  0  0  0  0  0  0
    0.7145   -0.4125    0.0000 C   0  0  0  0  0  0  0  0  0  0  0  0
    0.7145   -1.2375    0.0000 C   0  0  0  0  0  0  0  0  0  0  0  0
    0.0000   -1.6500    0.0000 C   0  0  0  0  0  0  0  0  0  0  0  0
   -0.7145   -1.2375    0.0000 O   0  0  0  0  0  0  0  0  0  0  0  0
    0.0000    0.0000    0.0000 C   0  0  0  0  0  0  0  0  0  0  0  0
    0.0000    0.8250    0.0000 C   0  0  0  0  0  0  0  0  0  0  0  0
    0.0000   -2.4750    0.0000 R#  0  0  0  0  0  0  0  0  0  0  0  0
  1  2  1  0
  2  3  2  0
  3  4  1  0
  4  5  2  0
  5  6  1  0
  6  7  1  0
  7 11  1  0
  7  8  2  0
  5  9  1  0
  9 10  2  0
  2 10  1  0
M  RGP  1  11   2
V   11 *
M  END
>  <m_name>  (264)
2-(4-chlorophenyl)acetic acid

>  <symbol>  (264)
deamino_Phg_4Cl

>  <m_abbr>  (264)
deamino_Phg_4Cl

>  <m_type>  (264)
aa

>  <m_subtype>  (264)
aa

>  <m_Rgroups>  (264)
None,OH,None,None

>  <m_RgroupIdx>  (264)
None,10,None,None

>  <m_attachmentPointIdx>  (264)
None,6,None,None

>  <natAnalog>  (264)
G

>  <pdbName>  (264)
D6L

$$$$

     RDKit          2D

  8  7  0  0  0  0  0  0  0  0999 V2000
    1.2375    2.1434    0.0000 C   0  0  0  0  0  0  0  0  0  0  0  0
    0.8250    1.4289    0.0000 C   0  0  0  0  0  0  0  0  0  0  0  0
    0.0000    1.4289    0.0000 C   0  0  0  0  0  0  0  0  0  0  0  0
    1.2375    0.7145    0.0000 C   0  0  0  0  0  0  0  0  0  0  0  0
    2.0625    0.7145    0.0000 O   0  0  0  0  0  0  0  0  0  0  0  0
    0.8250    0.0000    0.0000 C   0  0  0  0  0  0  0  0  0  0  0  0
    0.0000    0.0000    0.0000 O   0  0  0  0  0  0  0  0  0  0  0  0
    1.2375   -0.7145    0.0000 R#  0  0  0  0  0  0  0  0  0  0  0  0
  1  2  1  0
  2  3  1  0
  4  2  1  0
  4  5  1  1
  4  6  1  0
  6  8  1  0
  6  7  2  0
M  RGP  1   8   2
V    8 *
M  END
>  <m_name>  (265)
(2R)-2-hydroxy-3-methylbutanoic acid

>  <symbol>  (265)
D_OVal

>  <m_abbr>  (265)
D_OVal

>  <m_type>  (265)
aa

>  <m_subtype>  (265)
aa

>  <m_Rgroups>  (265)
None,OH,None,None

>  <m_RgroupIdx>  (265)
None,7,None,None

>  <m_attachmentPointIdx>  (265)
None,5,None,None

>  <natAnalog>  (265)
V

>  <pdbName>  (265)
D7O

$$$$

     RDKit          2D

  9  8  0  0  0  0  0  0  0  0999 V2000
   -0.1914    0.7145    0.0000 C   0  0  0  0  0  0  0  0  0  0  0  0
    0.5230    1.1270    0.0000 C   0  0  0  0  0  0  0  0  0  0  0  0
    0.5230    1.9520    0.0000 C   0  0  0  0  0  0  0  0  0  0  0  0
    1.2375    0.7145    0.0000 C   0  0  0  0  0  0  0  0  0  0  0  0
    1.9520    1.1270    0.0000 C   0  0  0  0  0  0  0  0  0  0  0  0
    1.9520    1.9520    0.0000 O   0  0  0  0  0  0  0  0  0  0  0  0
    2.6664    0.7145    0.0000 C   0  0  0  0  0  0  0  0  0  0  0  0
    2.6664   -0.1105    0.0000 O   0  0  0  0  0  0  0  0  0  0  0  0
    3.3809    1.1270    0.0000 R#  0  0  0  0  0  0  0  0  0  0  0  0
  1  2  1  0
  2  3  1  0
  2  4  1  0
  5  4  1  0
  5  6  1  6
  5  7  1  0
  7  9  1  0
  7  8  2  0
M  RGP  1   9   2
V    9 *
M  END
>  <m_name>  (266)
(2S)-2-hydroxy-4-methylpentanoic acid

>  <symbol>  (266)
OLeu

>  <m_abbr>  (266)
OLeu

>  <m_type>  (266)
aa

>  <m_subtype>  (266)
aa

>  <m_Rgroups>  (266)
None,OH,None,None

>  <m_RgroupIdx>  (266)
None,8,None,None

>  <m_attachmentPointIdx>  (266)
None,6,None,None

>  <natAnalog>  (266)
L

>  <pdbName>  (266)
OLG

$$$$

     RDKit          2D

  8  8  0  0  0  0  0  0  0  0999 V2000
    0.7145    2.0625    0.0000 C   0  0  0  0  0  0  0  0  0  0  0  0
    0.7145    1.2375    0.0000 C   0  0  0  0  0  0  0  0  0  0  0  0
    1.4289    0.8250    0.0000 C   0  0  0  0  0  0  0  0  0  0  0  0
    1.4289    0.0000    0.0000 C   0  0  0  0  0  0  0  0  0  0  0  0
    0.7145   -0.4125    0.0000 C   0  0  0  0  0  0  0  0  0  0  0  0
    0.0000    0.0000    0.0000 C   0  0  0  0  0  0  0  0  0  0  0  0
    0.0000    0.8250    0.0000 C   0  0  0  0  0  0  0  0  0  0  0  0
    0.0000    2.4750    0.0000 R#  0  0  0  0  0  0  0  0  0  0  0  0
  8  1  1  0
  1  2  1  0
  2  3  2  0
  3  4  1  0
  4  5  2  0
  5  6  1  0
  6  7  2  0
  2  7  1  0
M  RGP  1   8   2
V    8 *
M  END
>  <m_name>  (267)
N-Terminal toluene

>  <symbol>  (267)
Bn_

>  <m_abbr>  (267)
Bn_

>  <m_type>  (267)
aa

>  <m_subtype>  (267)
aa

>  <m_Rgroups>  (267)
None,OH,None,None

>  <m_RgroupIdx>  (267)
None,7,None,None

>  <m_attachmentPointIdx>  (267)
None,0,None,None

>  <natAnalog>  (267)
X

>  <pdbName>  (267)
BN8

$$$$

     RDKit          2D

  9  9  0  0  0  0  0  0  0  0999 V2000
    0.0000    2.4750    0.0000 O   0  0  0  0  0  0  0  0  0  0  0  0
    0.7145    2.0625    0.0000 C   0  0  0  0  0  0  0  0  0  0  0  0
    0.7145    1.2375    0.0000 C   0  0  0  0  0  0  0  0  0  0  0  0
    1.4289    0.8250    0.0000 C   0  0  0  0  0  0  0  0  0  0  0  0
    1.4289    0.0000    0.0000 C   0  0  0  0  0  0  0  0  0  0  0  0
    0.7145   -0.4125    0.0000 C   0  0  0  0  0  0  0  0  0  0  0  0
    0.0000    0.0000    0.0000 C   0  0  0  0  0  0  0  0  0  0  0  0
    0.0000    0.8250    0.0000 C   0  0  0  0  0  0  0  0  0  0  0  0
    0.0000    3.3000    0.0000 R#  0  0  0  0  0  0  0  0  0  0  0  0
  9  1  1  0
  1  2  1  0
  2  3  1  0
  3  4  2  0
  4  5  1  0
  5  6  2  0
  6  7  1  0
  7  8  2  0
  3  8  1  0
M  RGP  1   9   2
V    9 *
M  END
>  <m_name>  (268)
N-Terminal phenylmethanol

>  <symbol>  (268)
OBn_

>  <m_abbr>  (268)
OBn_

>  <m_type>  (268)
aa

>  <m_subtype>  (268)
aa

>  <m_Rgroups>  (268)
None,OH,None,None

>  <m_RgroupIdx>  (268)
None,8,None,None

>  <m_attachmentPointIdx>  (268)
None,0,None,None

>  <natAnalog>  (268)
X

>  <pdbName>  (268)
OBK

$$$$

     RDKit          2D

 10  9  0  0  0  0  0  0  0  0999 V2000
    1.0461    1.4289    0.0000 N   0  0  0  0  0  0  0  0  0  0  0  0
    1.7605    1.8414    0.0000 C   0  0  0  0  0  0  0  0  0  0  0  0
    2.4750    1.4289    0.0000 C   0  0  0  0  0  0  0  0  0  0  0  0
    3.1895    1.8414    0.0000 C   0  0  0  0  0  0  0  0  0  0  0  0
    3.9039    1.4289    0.0000 C   0  0  0  0  0  0  0  0  0  0  0  0
    4.6184    1.8414    0.0000 C   0  0  0  0  0  0  0  0  0  0  0  0
    5.3329    1.4289    0.0000 C   0  0  0  0  0  0  0  0  0  0  0  0
    6.0474    1.8414    0.0000 O   0  0  0  0  0  0  0  0  0  0  0  0
    5.3329    0.6039    0.0000 O   0  0  0  0  0  0  0  0  0  0  0  0
    4.6184    2.6664    0.0000 R#  0  0  0  0  0  0  0  0  0  0  0  0
  1  2  1  0
  2  3  1  0
  3  4  1  0
  4  5  1  0
  5  6  1  0
  6 10  1  0
  6  7  1  0
  7  8  1  0
  7  9  2  0
M  RGP  1  10   2
V   10 *
M  END
>  <m_name>  (269)
Deamino-Lysine

>  <symbol>  (269)
deamino_Lys

>  <m_abbr>  (269)
deamino_Lys

>  <m_type>  (269)
aa

>  <m_subtype>  (269)
aa

>  <m_Rgroups>  (269)
None,OH,None,None

>  <m_RgroupIdx>  (269)
None,9,None,None

>  <m_attachmentPointIdx>  (269)
None,5,None,None

>  <natAnalog>  (269)
K

>  <pdbName>  (269)
D8O

$$$$

     RDKit          2D

 12 12  0  0  0  0  0  0  0  0999 V2000
    0.0000    2.4750    0.0000 C   0  0  0  0  0  0  0  0  0  0  0  0
    0.7145    2.0625    0.0000 N   0  0  0  0  0  0  0  0  0  0  0  0
    1.4289    2.4750    0.0000 C   0  0  0  0  0  0  0  0  0  0  0  0
    0.7145    1.2375    0.0000 C   0  0  0  0  0  0  0  0  0  0  0  0
    1.4289    0.8250    0.0000 C   0  0  0  0  0  0  0  0  0  0  0  0
    1.4289    0.0000    0.0000 C   0  0  0  0  0  0  0  0  0  0  0  0
    0.7145   -0.4125    0.0000 C   0  0  0  0  0  0  0  0  0  0  0  0
    0.0000    0.0000    0.0000 C   0  0  0  0  0  0  0  0  0  0  0  0
    0.0000    0.8250    0.0000 C   0  0  0  0  0  0  0  0  0  0  0  0
    0.7145   -1.2375    0.0000 C   0  0  0  0  0  0  0  0  0  0  0  0
    0.0000   -1.6500    0.0000 O   0  0  0  0  0  0  0  0  0  0  0  0
    1.4289   -1.6500    0.0000 R#  0  0  0  0  0  0  0  0  0  0  0  0
  1  2  1  0
  2  3  1  0
  2  4  1  0
  4  5  2  0
  5  6  1  0
  6  7  2  0
  7  8  1  0
  8  9  2  0
  4  9  1  0
  7 10  1  0
 10 12  1  0
 10 11  2  0
M  RGP  1  12   2
V   12 *
M  END
>  <m_name>  (270)
4-(dimethylamino)benzoic acid

>  <symbol>  (270)
NMe24Abz

>  <m_abbr>  (270)
NMe24Abz

>  <m_type>  (270)
aa

>  <m_subtype>  (270)
non-natural

>  <m_Rgroups>  (270)
None,OH,None,None

>  <m_RgroupIdx>  (270)
None,11,None,None

>  <m_attachmentPointIdx>  (270)
None,9,None,None

>  <natAnalog>  (270)
X

>  <pdbName>  (270)
NB3

$$$$

     RDKit          2D

 16 16  0  0  0  0  0  0  0  0999 V2000
    1.4289    2.4750    0.0000 O   0  0  0  0  0  0  0  0  0  0  0  0
    0.7145    2.0625    0.0000 N   0  0  0  0  0  0  0  0  0  0  0  0
    0.0000    2.4750    0.0000 O   0  0  0  0  0  0  0  0  0  0  0  0
    0.7145    1.2375    0.0000 C   0  0  0  0  0  0  0  0  0  0  0  0
    1.4289    0.8250    0.0000 C   0  0  0  0  0  0  0  0  0  0  0  0
    1.4289    0.0000    0.0000 C   0  0  0  0  0  0  0  0  0  0  0  0
    0.7145   -0.4125    0.0000 C   0  0  0  0  0  0  0  0  0  0  0  0
    0.0000    0.0000    0.0000 C   0  0  0  0  0  0  0  0  0  0  0  0
   -0.7145   -0.4125    0.0000 C   0  0  0  0  0  0  0  0  0  0  0  0
   -1.4289    0.0000    0.0000 C   0  0  0  0  0  0  0  0  0  0  0  0
   -2.1434   -0.4125    0.0000 N   0  0  0  0  0  0  0  0  0  0  0  0
   -1.4289    0.8250    0.0000 C   0  0  0  0  0  0  0  0  0  0  0  0
   -0.7145    1.2375    0.0000 O   0  0  0  0  0  0  0  0  0  0  0  0
    0.0000    0.8250    0.0000 C   0  0  0  0  0  0  0  0  0  0  0  0
   -2.1434   -1.2375    0.0000 R#  0  0  0  0  0  0  0  0  0  0  0  0
   -2.1434    1.2375    0.0000 R#  0  0  0  0  0  0  0  0  0  0  0  0
  1  2  1  0
  2  3  2  0
  2  4  1  0
  4  5  2  0
  5  6  1  0
  6  7  2  0
  7  8  1  0
  9  8  1  0
  9 10  2  3
 10 11  1  0
 11 15  1  0
 10 12  1  0
 12 16  1  0
 12 13  2  0
  8 14  2  0
  4 14  1  0
M  CHG  2   1  -1   2   1
M  RGP  2  15   1  16   2
V   15 *
V   16 *
M  END
>  <m_name>  (271)
2-amino-3-(3-nitrophenyl)prop-2-enoic acid

>  <symbol>  (271)
Phe_ab_dehydro_3NO2

>  <m_abbr>  (271)
Phe_ab_dehydro_3NO2

>  <m_type>  (271)
aa

>  <m_subtype>  (271)
non-natural

>  <m_Rgroups>  (271)
H,OH,None,None

>  <m_RgroupIdx>  (271)
14,15,None,None

>  <m_attachmentPointIdx>  (271)
10,11,None,None

>  <natAnalog>  (271)
F

>  <pdbName>  (271)
PKI

$$$$

     RDKit          2D

 13 12  0  0  0  0  0  0  0  0999 V2000
    1.0461    1.4289    0.0000 C   0  0  0  0  0  0  0  0  0  0  0  0
    1.7605    1.8414    0.0000 C   0  0  0  0  0  0  0  0  0  0  0  0
    1.7605    2.6664    0.0000 C   0  0  0  0  0  0  0  0  0  0  0  0
    2.4750    1.4289    0.0000 C   0  0  0  0  0  0  0  0  0  0  0  0
    3.1895    1.8414    0.0000 C   0  0  0  0  0  0  0  0  0  0  0  0
    3.1895    2.6664    0.0000 N   0  0  0  0  0  0  0  0  0  0  0  0
    3.9039    1.4289    0.0000 C   0  0  0  0  0  0  0  0  0  0  0  0
    3.9039    0.6039    0.0000 O   0  0  0  0  0  0  0  0  0  0  0  0
    4.6184    1.8414    0.0000 C   0  0  0  0  0  0  0  0  0  0  0  0
    5.3329    1.4289    0.0000 C   0  0  0  0  0  0  0  0  0  0  0  0
    5.3329    0.6039    0.0000 O   0  0  0  0  0  0  0  0  0  0  0  0
    3.9039    3.0789    0.0000 R#  0  0  0  0  0  0  0  0  0  0  0  0
    6.0474    1.8414    0.0000 R#  0  0  0  0  0  0  0  0  0  0  0  0
  1  2  1  0
  2  3  1  0
  2  4  1  0
  5  4  1  6
  5  6  1  0
  6 12  1  0
  5  7  1  0
  7  8  1  6
  7  9  1  0
  9 10  1  0
 10 13  1  0
 10 11  2  0
M  RGP  2  12   1  13   2
V   12 *
V   13 *
M  END
>  <m_name>  (272)
(3S,4S)-4-amino-3-hydroxy-6-methylheptanoic acid

>  <symbol>  (272)
Sta_3S4S

>  <m_abbr>  (272)
Sta_3S4S

>  <m_type>  (272)
aa

>  <m_subtype>  (272)
non-natural

>  <m_Rgroups>  (272)
H,OH,None,None

>  <m_RgroupIdx>  (272)
11,12,None,None

>  <m_attachmentPointIdx>  (272)
5,9,None,None

>  <natAnalog>  (272)
X

>  <pdbName>  (272)
SA4

$$$$

     RDKit          2D

  9  8  0  0  0  0  0  0  0  0999 V2000
    3.9039    0.6039    0.0000 O   0  0  0  0  0  0  0  0  0  0  0  0
    3.9039    1.4289    0.0000 C   0  0  0  0  0  0  0  0  0  0  0  0
    3.1895    1.8414    0.0000 C   0  0  0  0  0  0  0  0  0  0  0  0
    2.4750    1.4289    0.0000 N   0  0  0  0  0  0  0  0  0  0  0  0
    4.6184    1.8414    0.0000 C   0  0  0  0  0  0  0  0  0  0  0  0
    5.3329    1.4289    0.0000 C   0  0  0  0  0  0  0  0  0  0  0  0
    5.3329    0.6039    0.0000 O   0  0  0  0  0  0  0  0  0  0  0  0
    1.7605    1.8414    0.0000 R#  0  0  0  0  0  0  0  0  0  0  0  0
    6.0474    1.8414    0.0000 R#  0  0  0  0  0  0  0  0  0  0  0  0
  2  1  1  6
  2  3  1  0
  3  4  1  0
  4  8  1  0
  2  5  1  0
  5  6  1  0
  6  9  1  0
  6  7  2  0
M  RGP  2   8   1   9   2
V    8 *
V    9 *
M  END
>  <m_name>  (273)
(3S)-4-amino-3-hydroxybutanoic acid

>  <symbol>  (273)
Bux

>  <m_abbr>  (273)
Bux

>  <m_type>  (273)
aa

>  <m_subtype>  (273)
non-natural

>  <m_Rgroups>  (273)
H,OH,None,None

>  <m_RgroupIdx>  (273)
7,8,None,None

>  <m_attachmentPointIdx>  (273)
3,5,None,None

>  <natAnalog>  (273)
X

>  <pdbName>  (273)
BUZ

$$$$

     RDKit          2D

 14 13  0  0  0  0  0  0  0  0999 V2000
    1.6500   -1.4289    0.0000 N   0  0  0  0  0  0  0  0  0  0  0  0
    1.2375   -0.7145    0.0000 C   0  0  0  0  0  0  0  0  0  0  0  0
    1.9520   -0.3020    0.0000 C   0  0  0  0  0  0  0  0  0  0  0  0
    1.9520    0.5230    0.0000 C   0  0  0  0  0  0  0  0  0  0  0  0
    2.6664    0.9355    0.0000 C   0  0  0  0  0  0  0  0  0  0  0  0
    2.6664    1.7605    0.0000 C   0  0  0  0  0  0  0  0  0  0  0  0
    3.3809    2.1730    0.0000 C   0  0  0  0  0  0  0  0  0  0  0  0
    3.3809    2.9980    0.0000 O   0  0  0  0  0  0  0  0  0  0  0  0
    4.0954    1.7605    0.0000 O   0  0  0  0  0  0  0  0  0  0  0  0
    0.5230   -1.1270    0.0000 N   0  0  0  0  0  0  0  0  0  0  0  0
    0.8250    0.0000    0.0000 C   0  0  0  0  0  0  0  0  0  0  0  0
    0.0000    0.0000    0.0000 O   0  0  0  0  0  0  0  0  0  0  0  0
    0.5230   -1.9520    0.0000 R#  0  0  0  0  0  0  0  0  0  0  0  0
    1.2375    0.7145    0.0000 R#  0  0  0  0  0  0  0  0  0  0  0  0
  1  2  1  0
  2  3  1  0
  3  4  1  0
  4  5  1  0
  5  6  1  0
  6  7  1  0
  7  8  1  0
  7  9  2  0
  2 10  1  0
 10 13  1  0
  2 11  1  0
 11 14  1  0
 11 12  2  0
M  RGP  2  13   1  14   2
V   13 *
V   14 *
M  END
>  <m_name>  (274)
Diaminopimelic acid

>  <symbol>  (274)
Dpm

>  <m_abbr>  (274)
Dpm

>  <m_type>  (274)
aa

>  <m_subtype>  (274)
non-natural

>  <m_Rgroups>  (274)
H,OH,None,None

>  <m_RgroupIdx>  (274)
12,13,None,None

>  <m_attachmentPointIdx>  (274)
9,10,None,None

>  <natAnalog>  (274)
X

>  <pdbName>  (274)
D8R

$$$$

     RDKit          2D

 22 23  0  0  0  0  0  0  0  0999 V2000
    9.4280    7.8754    0.0000 N   0  0  0  0  0  0  0  0  0  0  0  0
    9.2565    7.0684    0.0000 C   0  0  0  0  0  0  0  0  0  0  0  0
    9.8695    6.5164    0.0000 N   0  0  0  0  0  0  0  0  0  0  0  0
    9.6980    5.7094    0.0000 C   0  0  0  0  0  0  0  0  0  0  0  0
    8.9134    5.4545    0.0000 N   0  0  0  0  0  0  0  0  0  0  0  0
    8.3003    6.0065    0.0000 C   0  0  0  0  0  0  0  0  0  0  0  0
    7.4798    5.9203    0.0000 N   0  0  0  0  0  0  0  0  0  0  0  0
    7.0673    5.2058    0.0000 C   0  0  0  0  0  0  0  0  0  0  0  0
    6.2423    5.2058    0.0000 C   0  0  0  0  0  0  0  0  0  0  0  0
    5.8298    5.9203    0.0000 O   0  0  0  0  0  0  0  0  0  0  0  0
    5.8298    4.4913    0.0000 N   0  0  0  0  0  0  0  0  0  0  0  0
    5.0048    4.4913    0.0000 C   0  0  0  0  0  0  0  0  0  0  0  0
    4.5923    3.7769    0.0000 C   0  0  0  0  0  0  0  0  0  0  0  0
    3.7673    3.7769    0.0000 N   0  0  0  0  0  0  0  0  0  0  0  0
    6.2423    3.7769    0.0000 C   0  0  0  0  0  0  0  0  0  0  0  0
    7.0673    3.7769    0.0000 C   0  0  0  0  0  0  0  0  0  0  0  0
    7.4798    3.0624    0.0000 O   0  0  0  0  0  0  0  0  0  0  0  0
    7.1443    6.6739    0.0000 C   0  0  0  0  0  0  0  0  0  0  0  0
    7.7574    7.2260    0.0000 N   0  0  0  0  0  0  0  0  0  0  0  0
    8.4718    6.8135    0.0000 C   0  0  0  0  0  0  0  0  0  0  0  0
    3.3548    3.0624    0.0000 R#  0  0  0  0  0  0  0  0  0  0  0  0
    7.4798    4.4913    0.0000 R#  0  0  0  0  0  0  0  0  0  0  0  0
  1  2  1  0
  2  3  2  0
  3  4  1  0
  4  5  2  0
  5  6  1  0
  6  7  1  0
  7  8  1  0
  8  9  1  0
  9 10  2  0
  9 11  1  0
 11 12  1  0
 12 13  1  0
 13 14  1  0
 14 21  1  0
 11 15  1  0
 15 16  1  0
 16 22  1  0
 16 17  2  0
  7 18  1  0
 18 19  2  0
 19 20  1  0
  2 20  1  0
  6 20  2  0
M  RGP  2  21   1  22   2
V   21 *
V   22 *
M  END
>  <m_name>  (275)
PNA Adenine

>  <symbol>  (275)
pnA

>  <m_abbr>  (275)
pnA

>  <m_type>  (275)
aa

>  <m_subtype>  (275)
non-natural

>  <m_Rgroups>  (275)
H,OH,None,None

>  <m_RgroupIdx>  (275)
20,21,None,None

>  <m_attachmentPointIdx>  (275)
13,15,None,None

>  <natAnalog>  (275)
X

>  <pdbName>  (275)
PKK

$$$$

     RDKit          2D

 21 21  0  0  0  0  0  0  0  0999 V2000
    2.8066    6.5704    0.0000 C   0  0  0  0  0  0  0  0  0  0  0  0
    1.9816    6.5704    0.0000 C   0  0  0  0  0  0  0  0  0  0  0  0
    1.5691    5.8559    0.0000 C   0  0  0  0  0  0  0  0  0  0  0  0
    0.7441    5.8559    0.0000 N   0  0  0  0  0  0  0  0  0  0  0  0
    0.3316    5.1414    0.0000 C   0  0  0  0  0  0  0  0  0  0  0  0
   -0.4934    5.1414    0.0000 C   0  0  0  0  0  0  0  0  0  0  0  0
   -0.9059    5.8559    0.0000 O   0  0  0  0  0  0  0  0  0  0  0  0
   -0.9059    4.4270    0.0000 N   0  0  0  0  0  0  0  0  0  0  0  0
   -1.7309    4.4270    0.0000 C   0  0  0  0  0  0  0  0  0  0  0  0
   -2.1434    3.7125    0.0000 C   0  0  0  0  0  0  0  0  0  0  0  0
   -2.9684    3.7125    0.0000 N   0  0  0  0  0  0  0  0  0  0  0  0
   -0.4934    3.7125    0.0000 C   0  0  0  0  0  0  0  0  0  0  0  0
    0.3316    3.7125    0.0000 C   0  0  0  0  0  0  0  0  0  0  0  0
    0.7441    2.9980    0.0000 O   0  0  0  0  0  0  0  0  0  0  0  0
    0.3316    6.5704    0.0000 C   0  0  0  0  0  0  0  0  0  0  0  0
   -0.4934    6.5704    0.0000 O   0  0  0  0  0  0  0  0  0  0  0  0
    0.7441    7.2849    0.0000 N   0  0  0  0  0  0  0  0  0  0  0  0
    1.5691    7.2849    0.0000 C   0  0  0  0  0  0  0  0  0  0  0  0
    1.9816    7.9993    0.0000 O   0  0  0  0  0  0  0  0  0  0  0  0
   -3.3809    2.9980    0.0000 R#  0  0  0  0  0  0  0  0  0  0  0  0
    0.7441    4.4270    0.0000 R#  0  0  0  0  0  0  0  0  0  0  0  0
  1  2  1  0
  2  3  2  0
  3  4  1  0
  4  5  1  0
  5  6  1  0
  6  7  2  0
  6  8  1  0
  8  9  1  0
  9 10  1  0
 10 11  1  0
 11 20  1  0
  8 12  1  0
 12 13  1  0
 13 21  1  0
 13 14  2  0
  4 15  1  0
 15 16  2  0
 15 17  1  0
 17 18  1  0
  2 18  1  0
 18 19  2  0
M  RGP  2  20   1  21   2
V   20 *
V   21 *
M  END
>  <m_name>  (276)
PNA Thymine

>  <symbol>  (276)
pnT

>  <m_abbr>  (276)
pnT

>  <m_type>  (276)
aa

>  <m_subtype>  (276)
non-natural

>  <m_Rgroups>  (276)
H,OH,None,None

>  <m_RgroupIdx>  (276)
19,20,None,None

>  <m_attachmentPointIdx>  (276)
10,12,None,None

>  <natAnalog>  (276)
X

>  <pdbName>  (276)
PKN

$$$$

     RDKit          2D

  8  7  0  0  0  0  0  0  0  0999 V2000
    0.0000   -1.4289    0.0000 Se  0  0  0  0  0  2  0  0  0  0  0  0
    0.8250   -1.4289    0.0000 C   0  0  0  0  0  0  0  0  0  0  0  0
    1.2375   -0.7145    0.0000 C   0  0  0  0  0  0  0  0  0  0  0  0
    2.0625   -0.7145    0.0000 N   0  0  0  0  0  0  0  0  0  0  0  0
    0.8250    0.0000    0.0000 C   0  0  0  0  0  0  0  0  0  0  0  0
    0.0000    0.0000    0.0000 O   0  0  0  0  0  0  0  0  0  0  0  0
    2.4750    0.0000    0.0000 R#  0  0  0  0  0  0  0  0  0  0  0  0
    1.2375    0.7145    0.0000 R#  0  0  0  0  0  0  0  0  0  0  0  0
  1  2  1  0
  3  2  1  1
  3  4  1  0
  4  7  1  0
  3  5  1  0
  5  8  1  0
  5  6  2  0
M  RGP  2   7   1   8   2
V    7 *
V    8 *
M  END
>  <m_name>  (277)
SelenoCysteine

>  <symbol>  (277)
seC

>  <m_abbr>  (277)
seC

>  <m_type>  (277)
aa

>  <m_subtype>  (277)
non-natural

>  <m_Rgroups>  (277)
H,OH,None,None

>  <m_RgroupIdx>  (277)
6,7,None,None

>  <m_attachmentPointIdx>  (277)
3,4,None,None

>  <natAnalog>  (277)
C

>  <pdbName>  (277)
SEX

$$$$

     RDKit          2D

  7  6  0  0  0  0  0  0  0  0999 V2000
    1.9520   -0.3020    0.0000 C   0  0  0  0  0  0  0  0  0  0  0  0
    1.2375   -0.7145    0.0000 C   0  0  0  0  0  0  0  0  0  0  0  0
    0.5230   -1.1270    0.0000 C   0  0  0  0  0  0  0  0  0  0  0  0
    1.6500   -1.4289    0.0000 C   0  0  0  0  0  0  0  0  0  0  0  0
    2.4750   -1.4289    0.0000 O   0  0  0  0  0  0  0  0  0  0  0  0
    0.8250    0.0000    0.0000 N   0  0  0  0  0  0  0  0  0  0  0  0
    0.0000    0.0000    0.0000 R#  0  0  0  0  0  0  0  0  0  0  0  0
  1  2  1  0
  2  3  1  0
  2  4  1  0
  4  5  1  0
  2  6  1  0
  6  7  1  0
M  RGP  1   7   1
V    7 *
M  END
>  <m_name>  (278)
2-amino-2-methylpropan-1-ol

>  <symbol>  (278)
Aib_ol

>  <m_abbr>  (278)
Aib_ol

>  <m_type>  (278)
aa

>  <m_subtype>  (278)
non-natural

>  <m_Rgroups>  (278)
H,None,None,None

>  <m_RgroupIdx>  (278)
6,None,None,None

>  <m_attachmentPointIdx>  (278)
5,None,None,None

>  <natAnalog>  (278)
X

>  <pdbName>  (278)
AJF

$$$$

     RDKit          2D

  8  8  0  0  0  0  0  0  0  0999 V2000
   -0.1467    2.3518    0.0000 O   0  0  0  0  0  0  0  0  0  0  0  0
    0.5678    1.9393    0.0000 C   0  0  0  0  0  0  0  0  0  0  0  0
    0.5678    1.1143    0.0000 C   0  0  0  0  0  0  0  0  0  0  0  0
    1.2352    0.6294    0.0000 C   0  0  0  0  0  0  0  0  0  0  0  0
    0.9803   -0.1553    0.0000 C   0  0  0  0  0  0  0  0  0  0  0  0
    0.1553   -0.1553    0.0000 C   0  0  0  0  0  0  0  0  0  0  0  0
   -0.0997    0.6294    0.0000 N   0  0  0  0  0  0  0  0  0  0  0  0
   -0.8843    0.8843    0.0000 R#  0  0  0  0  0  0  0  0  0  0  0  0
  1  2  1  0
  3  2  1  1
  3  4  1  0
  4  5  1  0
  5  6  1  0
  6  7  1  0
  3  7  1  0
  7  8  1  0
M  RGP  1   8   1
V    8 *
M  END
>  <m_name>  (279)
[(2R)-pyrrolidin-2-yl]methanol

>  <symbol>  (279)
D_Pro_ol

>  <m_abbr>  (279)
D_Pro_ol

>  <m_type>  (279)
aa

>  <m_subtype>  (279)
non-natural

>  <m_Rgroups>  (279)
H,None,None,None

>  <m_RgroupIdx>  (279)
7,None,None,None

>  <m_attachmentPointIdx>  (279)
6,None,None,None

>  <natAnalog>  (279)
P

>  <pdbName>  (279)
D85

$$$$

     RDKit          2D

  9  8  0  0  0  0  0  0  0  0999 V2000
    0.5230    0.5230    0.0000 C   0  0  0  0  0  0  0  0  0  0  0  0
    1.2375    0.1105    0.0000 C   0  0  0  0  0  0  0  0  0  0  0  0
    1.9520    0.5230    0.0000 C   0  0  0  0  0  0  0  0  0  0  0  0
    1.2375   -0.7145    0.0000 C   0  0  0  0  0  0  0  0  0  0  0  0
    1.9520   -1.1270    0.0000 C   0  0  0  0  0  0  0  0  0  0  0  0
    1.9520   -1.9520    0.0000 C   0  0  0  0  0  0  0  0  0  0  0  0
    2.6664   -2.3645    0.0000 O   0  0  0  0  0  0  0  0  0  0  0  0
    2.6664   -0.7145    0.0000 N   0  0  0  0  0  0  0  0  0  0  0  0
    3.3809   -1.1270    0.0000 R#  0  0  0  0  0  0  0  0  0  0  0  0
  1  2  1  0
  2  3  1  0
  2  4  1  0
  5  4  1  6
  5  6  1  0
  6  7  1  0
  5  8  1  0
  8  9  1  0
M  RGP  1   9   1
V    9 *
M  END
>  <m_name>  (280)
(2S)-2-amino-4-methylpentan-1-ol

>  <symbol>  (280)
Leu_ol

>  <m_abbr>  (280)
Leu_ol

>  <m_type>  (280)
aa

>  <m_subtype>  (280)
non-natural

>  <m_Rgroups>  (280)
H,None,None,None

>  <m_RgroupIdx>  (280)
8,None,None,None

>  <m_attachmentPointIdx>  (280)
7,None,None,None

>  <natAnalog>  (280)
L

>  <pdbName>  (280)
LE0

$$$$

     RDKit          2D

 12 12  0  0  0  0  0  0  0  0999 V2000
   -0.7145    3.7125    0.0000 O   0  0  0  0  0  0  0  0  0  0  0  0
    0.0000    3.3000    0.0000 C   0  0  0  0  0  0  0  0  0  0  0  0
    0.0000    2.4750    0.0000 C   0  0  0  0  0  0  0  0  0  0  0  0
    0.7145    2.0625    0.0000 C   0  0  0  0  0  0  0  0  0  0  0  0
    0.7145    1.2375    0.0000 C   0  0  0  0  0  0  0  0  0  0  0  0
    1.4289    0.8250    0.0000 C   0  0  0  0  0  0  0  0  0  0  0  0
    1.4289    0.0000    0.0000 C   0  0  0  0  0  0  0  0  0  0  0  0
    0.7145   -0.4125    0.0000 C   0  0  0  0  0  0  0  0  0  0  0  0
    0.0000    0.0000    0.0000 C   0  0  0  0  0  0  0  0  0  0  0  0
    0.0000    0.8250    0.0000 C   0  0  0  0  0  0  0  0  0  0  0  0
   -0.7145    2.0625    0.0000 N   0  0  0  0  0  0  0  0  0  0  0  0
   -0.7145    1.2375    0.0000 R#  0  0  0  0  0  0  0  0  0  0  0  0
  1  2  1  0
  3  2  1  6
  3  4  1  0
  4  5  1  0
  5  6  2  0
  6  7  1  0
  7  8  2  0
  8  9  1  0
  9 10  2  0
  5 10  1  0
  3 11  1  0
 11 12  1  0
M  RGP  1  12   1
V   12 *
M  END
>  <m_name>  (281)
(2S)-2-amino-3-phenylpropan-1-ol

>  <symbol>  (281)
Phe_ol

>  <m_abbr>  (281)
Phe_ol

>  <m_type>  (281)
aa

>  <m_subtype>  (281)
non-natural

>  <m_Rgroups>  (281)
H,None,None,None

>  <m_RgroupIdx>  (281)
11,None,None,None

>  <m_attachmentPointIdx>  (281)
10,None,None,None

>  <natAnalog>  (281)
F

>  <pdbName>  (281)
PKO

$$$$

     RDKit          2D

  8  7  0  0  0  0  0  0  0  0999 V2000
    2.4750    0.0000    0.0000 C   0  0  0  0  0  0  0  0  0  0  0  0
    2.0625    0.7145    0.0000 C   0  0  0  0  0  0  0  0  0  0  0  0
    2.4750    1.4289    0.0000 O   0  0  0  0  0  0  0  0  0  0  0  0
    1.2375    0.7145    0.0000 C   0  0  0  0  0  0  0  0  0  0  0  0
    0.8250    1.4289    0.0000 C   0  0  0  0  0  0  0  0  0  0  0  0
    0.0000    1.4289    0.0000 O   0  0  0  0  0  0  0  0  0  0  0  0
    0.8250    0.0000    0.0000 N   0  0  0  0  0  0  0  0  0  0  0  0
    0.0000    0.0000    0.0000 R#  0  0  0  0  0  0  0  0  0  0  0  0
  2  1  1  1
  2  3  1  0
  2  4  1  0
  4  5  1  1
  5  6  1  0
  4  7  1  0
  7  8  1  0
M  RGP  1   8   1
V    8 *
M  END
>  <m_name>  (282)
(2S,3S)-2-aminobutane-1,3-diol

>  <symbol>  (282)
Thr_ol

>  <m_abbr>  (282)
Thr_ol

>  <m_type>  (282)
aa

>  <m_subtype>  (282)
non-natural

>  <m_Rgroups>  (282)
H,None,None,None

>  <m_RgroupIdx>  (282)
7,None,None,None

>  <m_attachmentPointIdx>  (282)
6,None,None,None

>  <natAnalog>  (282)
T

>  <pdbName>  (282)
TE0

$$$$

     RDKit          2D

  5  4  0  0  0  0  0  0  0  0999 V2000
    2.0625   -0.7145    0.0000 N   0  0  0  0  0  0  0  0  0  0  0  0
    1.2375   -0.7145    0.0000 C   0  0  0  0  0  0  0  0  0  0  0  0
    0.8250    0.0000    0.0000 C   0  0  0  0  0  0  0  0  0  0  0  0
    0.0000    0.0000    0.0000 O   0  0  0  0  0  0  0  0  0  0  0  0
    2.4750   -1.4289    0.0000 R#  0  0  0  0  0  0  0  0  0  0  0  0
  5  1  1  0
  1  2  1  0
  2  3  1  0
  3  4  2  0
M  RGP  1   5   1
V    5 *
M  END
>  <m_name>  (283)
2-aminoacetaldehyde

>  <symbol>  (283)
Gly_al

>  <m_abbr>  (283)
Gly_al

>  <m_type>  (283)
aa

>  <m_subtype>  (283)
non-natural

>  <m_Rgroups>  (283)
H,None,None,None

>  <m_RgroupIdx>  (283)
4,None,None,None

>  <m_attachmentPointIdx>  (283)
0,None,None,None

>  <natAnalog>  (283)
G

>  <pdbName>  (283)
GCJ

$$$$

     RDKit          2D

  9  8  0  0  0  0  0  0  0  0999 V2000
    0.5230    0.5230    0.0000 C   0  0  0  0  0  0  0  0  0  0  0  0
    1.2375    0.1105    0.0000 C   0  0  0  0  0  0  0  0  0  0  0  0
    1.9520    0.5230    0.0000 C   0  0  0  0  0  0  0  0  0  0  0  0
    1.2375   -0.7145    0.0000 C   0  0  0  0  0  0  0  0  0  0  0  0
    1.9520   -1.1270    0.0000 C   0  0  0  0  0  0  0  0  0  0  0  0
    1.9520   -1.9520    0.0000 N   0  0  0  0  0  0  0  0  0  0  0  0
    2.6664   -0.7145    0.0000 C   0  0  0  0  0  0  0  0  0  0  0  0
    3.3809   -1.1270    0.0000 O   0  0  0  0  0  0  0  0  0  0  0  0
    2.6664   -2.3645    0.0000 R#  0  0  0  0  0  0  0  0  0  0  0  0
  1  2  1  0
  2  3  1  0
  2  4  1  0
  5  4  1  1
  5  6  1  0
  6  9  1  0
  5  7  1  0
  7  8  2  0
M  RGP  1   9   1
V    9 *
M  END
>  <m_name>  (284)
(2S)-2-amino-4-methylpentanal

>  <symbol>  (284)
Leu_al

>  <m_abbr>  (284)
Leu_al

>  <m_type>  (284)
aa

>  <m_subtype>  (284)
non-natural

>  <m_Rgroups>  (284)
H,None,None,None

>  <m_RgroupIdx>  (284)
8,None,None,None

>  <m_attachmentPointIdx>  (284)
5,None,None,None

>  <natAnalog>  (284)
L

>  <pdbName>  (284)
LE5

$$$$

     RDKit          2D

 12 12  0  0  0  0  0  0  0  0999 V2000
    0.0000    3.3000    0.0000 N   0  0  0  0  0  0  0  0  0  0  0  0
    0.0000    2.4750    0.0000 C   0  0  0  0  0  0  0  0  0  0  0  0
    0.7145    2.0625    0.0000 C   0  0  0  0  0  0  0  0  0  0  0  0
    0.7145    1.2375    0.0000 C   0  0  0  0  0  0  0  0  0  0  0  0
    1.4289    0.8250    0.0000 C   0  0  0  0  0  0  0  0  0  0  0  0
    1.4289    0.0000    0.0000 C   0  0  0  0  0  0  0  0  0  0  0  0
    0.7145   -0.4125    0.0000 C   0  0  0  0  0  0  0  0  0  0  0  0
    0.0000    0.0000    0.0000 C   0  0  0  0  0  0  0  0  0  0  0  0
    0.0000    0.8250    0.0000 C   0  0  0  0  0  0  0  0  0  0  0  0
   -0.7145    2.0625    0.0000 C   0  0  0  0  0  0  0  0  0  0  0  0
   -0.7145    1.2375    0.0000 O   0  0  0  0  0  0  0  0  0  0  0  0
   -0.7145    3.7125    0.0000 R#  0  0  0  0  0  0  0  0  0  0  0  0
 12  1  1  0
  2  1  1  0
  2  3  1  1
  3  4  1  0
  4  5  2  0
  5  6  1  0
  6  7  2  0
  7  8  1  0
  8  9  2  0
  4  9  1  0
  2 10  1  0
 10 11  2  0
M  RGP  1  12   1
V   12 *
M  END
>  <m_name>  (285)
(2S)-2-amino-3-phenylpropanal

>  <symbol>  (285)
Phe_al

>  <m_abbr>  (285)
Phe_al

>  <m_type>  (285)
aa

>  <m_subtype>  (285)
non-natural

>  <m_Rgroups>  (285)
H,None,None,None

>  <m_RgroupIdx>  (285)
11,None,None,None

>  <m_attachmentPointIdx>  (285)
0,None,None,None

>  <natAnalog>  (285)
F

>  <pdbName>  (285)
PKQ

$$$$

     RDKit          2D

 18 17  0  0  0  0  0  0  0  0999 V2000
   -1.4629   -2.6369    0.0000 C   0  0  0  0  0  0  0  0  0  0  0  0
   -0.6528   -2.4810    0.0000 C   0  0  0  0  0  0  0  0  0  0  0  0
   -0.1127   -3.1046    0.0000 N   0  0  0  0  0  0  0  0  0  0  0  0
    0.6974   -2.9487    0.0000 C   0  0  0  0  0  0  0  0  0  0  0  0
    1.2375   -3.5724    0.0000 N   0  0  0  0  0  0  0  0  0  0  0  0
    2.0476   -3.4164    0.0000 C   0  0  0  0  0  0  0  0  0  0  0  0
    2.5877   -4.0401    0.0000 C   0  0  0  0  0  0  0  0  0  0  0  0
    3.3979   -3.8842    0.0000 C   0  0  0  0  0  0  0  0  0  0  0  0
    3.9379   -4.5078    0.0000 C   0  0  0  0  0  0  0  0  0  0  0  0
    4.7481   -4.3519    0.0000 C   0  0  0  0  0  0  0  0  0  0  0  0
    5.2882   -4.9755    0.0000 N   0  0  0  0  0  0  0  0  0  0  0  0
    5.0181   -3.5724    0.0000 C   0  0  0  0  0  0  0  0  0  0  0  0
    5.8283   -3.4164    0.0000 O   0  0  0  0  0  0  0  0  0  0  0  0
    0.9675   -2.1692    0.0000 N   0  0  0  0  0  0  0  0  0  0  0  0
    1.7776   -2.0133    0.0000 C   0  0  0  0  0  0  0  0  0  0  0  0
    2.0476   -1.2337    0.0000 C   0  0  0  0  0  0  0  0  0  0  0  0
    6.0983   -4.8196    0.0000 R#  0  0  0  0  0  0  0  0  0  0  0  0
    4.4780   -2.9487    0.0000 R#  0  0  0  0  0  0  0  0  0  0  0  0
  1  2  1  0
  3  2  1  0
  3  4  1  0
  4  5  1  0
  5  6  1  0
  6  7  1  0
  7  8  1  0
  8  9  1  0
 10  9  1  1
 10 11  1  0
 11 17  1  0
 10 12  1  0
 12 18  1  0
 12 13  2  0
  4 14  2  3
 14 15  1  0
 15 16  1  0
M  RGP  2  17   1  18   2
V   17 *
V   18 *
M  END
>  <m_name>  (286)
(2S)-2-amino-6-{[bis(ethylamino)methylidene]amino}hexanoic acid

>  <symbol>  (286)
L_hArg(Et,Et)

>  <m_abbr>  (286)
L_hArg(Et,Et)

>  <m_type>  (286)
aa

>  <m_subtype>  (286)
non-natural

>  <m_Rgroups>  (286)
H,OH,None,None

>  <m_RgroupIdx>  (286)
16,17,None,None

>  <m_attachmentPointIdx>  (286)
10,11,None,None

>  <natAnalog>  (286)
R

>  <pdbName>  (286)
LHI

$$$$

     RDKit          2D

 11 10  0  0  0  0  0  0  0  0999 V2000
    0.8250   -1.4289    0.0000 C   0  0  0  0  0  0  0  0  0  0  0  0
    1.2375   -2.1434    0.0000 S   0  0  0  0  0  0  0  0  0  0  0  0
    0.8250   -2.8579    0.0000 O   0  0  0  0  0  0  0  0  0  0  0  0
    2.0625   -2.1434    0.0000 C   0  0  0  0  0  0  0  0  0  0  0  0
    2.4750   -2.8579    0.0000 C   0  0  0  0  0  0  0  0  0  0  0  0
    3.3000   -2.8579    0.0000 C   0  0  0  0  0  0  0  0  0  0  0  0
    3.7125   -3.5724    0.0000 N   0  0  0  0  0  0  0  0  0  0  0  0
    3.7125   -2.1434    0.0000 C   0  0  0  0  0  0  0  0  0  0  0  0
    4.5375   -2.1434    0.0000 O   0  0  0  0  0  0  0  0  0  0  0  0
    4.5375   -3.5724    0.0000 R#  0  0  0  0  0  0  0  0  0  0  0  0
    3.3000   -1.4289    0.0000 R#  0  0  0  0  0  0  0  0  0  0  0  0
  1  2  1  0
  3  2  1  0
  2  4  1  0
  4  5  1  0
  6  5  1  1
  6  7  1  0
  6  8  1  0
  7 10  1  0
  8 11  1  0
  8  9  2  0
M  CHG  2   2   1   3  -1
M  RGP  2  10   1  11   2
V   10 *
V   11 *
M  END
>  <m_name>  (287)
(2S)-2-amino-4-methanesulfinylbutanoic acid

>  <symbol>  (287)
Met_O

>  <m_abbr>  (287)
Met_O

>  <m_type>  (287)
aa

>  <m_subtype>  (287)
non-natural

>  <m_Rgroups>  (287)
H,OH,None,None

>  <m_RgroupIdx>  (287)
9,10,None,None

>  <m_attachmentPointIdx>  (287)
6,7,None,None

>  <natAnalog>  (287)
M

>  <pdbName>  (287)
MHX

$$$$

     RDKit          2D

 13 13  0  0  0  0  0  0  0  0999 V2000
    0.7145    2.0625    0.0000 O   0  0  0  0  0  0  0  0  0  0  0  0
    0.7145    1.2375    0.0000 C   0  0  0  0  0  0  0  0  0  0  0  0
    1.4289    0.8250    0.0000 C   0  0  0  0  0  0  0  0  0  0  0  0
    1.4289    0.0000    0.0000 C   0  0  0  0  0  0  0  0  0  0  0  0
    0.7145   -0.4125    0.0000 C   0  0  0  0  0  0  0  0  0  0  0  0
    0.0000    0.0000    0.0000 C   0  0  0  0  0  0  0  0  0  0  0  0
    0.0000    0.8250    0.0000 C   0  0  0  0  0  0  0  0  0  0  0  0
    0.7145   -1.2375    0.0000 C   0  0  0  0  0  0  0  0  0  0  0  0
    0.0000   -1.6500    0.0000 N   0  0  0  0  0  0  0  0  0  0  0  0
    1.4289   -1.6500    0.0000 C   0  0  0  0  0  0  0  0  0  0  0  0
    2.1434   -1.2375    0.0000 O   0  0  0  0  0  0  0  0  0  0  0  0
    0.0000   -2.4750    0.0000 R#  0  0  0  0  0  0  0  0  0  0  0  0
    1.4289   -2.4750    0.0000 R#  0  0  0  0  0  0  0  0  0  0  0  0
  1  2  1  0
  2  3  2  0
  3  4  1  0
  4  5  2  0
  5  6  1  0
  6  7  2  0
  2  7  1  0
  8  5  1  0
  8  9  1  1
  9 12  1  0
  8 10  1  0
 10 13  1  0
 10 11  2  0
M  RGP  2  12   1  13   2
V   12 *
V   13 *
M  END
>  <m_name>  (288)
(2S)-2-amino-2-(4-hydroxyphenyl)acetic acid

>  <symbol>  (288)
nTyr

>  <m_abbr>  (288)
nTyr

>  <m_type>  (288)
aa

>  <m_subtype>  (288)
non-natural

>  <m_Rgroups>  (288)
H,OH,None,None

>  <m_RgroupIdx>  (288)
11,12,None,None

>  <m_attachmentPointIdx>  (288)
8,9,None,None

>  <natAnalog>  (288)
Y

>  <pdbName>  (288)
NT0

$$$$

     RDKit          2D

 13 14  0  0  0  0  0  0  0  0999 V2000
    1.1387   -0.0305    0.0000 N   0  0  0  0  0  0  0  0  0  0  0  0
    1.9233   -0.2854    0.0000 C   0  0  0  0  0  0  0  0  0  0  0  0
    2.6378    0.1271    0.0000 C   0  0  0  0  0  0  0  0  0  0  0  0
    3.3523   -0.2854    0.0000 C   0  0  0  0  0  0  0  0  0  0  0  0
    3.3523   -1.1104    0.0000 C   0  0  0  0  0  0  0  0  0  0  0  0
    2.6378   -1.5229    0.0000 C   0  0  0  0  0  0  0  0  0  0  0  0
    1.9233   -1.1104    0.0000 C   0  0  0  0  0  0  0  0  0  0  0  0
    1.1387   -1.3654    0.0000 C   0  0  0  0  0  0  0  0  0  0  0  0
    0.6538   -0.6979    0.0000 C   0  0  0  0  0  0  0  0  0  0  0  0
   -0.1712   -0.6979    0.0000 C   0  0  0  0  0  0  0  0  0  0  0  0
   -0.5837    0.0165    0.0000 O   0  0  0  0  0  0  0  0  0  0  0  0
    0.8838    0.7541    0.0000 R#  0  0  0  0  0  0  0  0  0  0  0  0
   -0.5837   -1.4124    0.0000 R#  0  0  0  0  0  0  0  0  0  0  0  0
 12  1  1  0
  2  1  1  0
  2  3  1  1
  3  4  1  0
  4  5  1  0
  5  6  1  0
  7  6  1  6
  2  7  1  0
  7  8  1  0
  9  8  1  0
  9  1  1  0
  9 10  1  1
 10 13  1  0
 10 11  2  0
M  RGP  2  12   1  13   2
V   12 *
V   13 *
M  END
>  <m_name>  (289)
(2S,3aR,7aS)-octahydro-1H-indole-2-carboxylic acid

>  <symbol>  (289)
Oic_3aR_7aS

>  <m_abbr>  (289)
Oic_3aR_7aS

>  <m_type>  (289)
aa

>  <m_subtype>  (289)
non-natural

>  <m_Rgroups>  (289)
H,OH,None,None

>  <m_RgroupIdx>  (289)
11,12,None,None

>  <m_attachmentPointIdx>  (289)
0,9,None,None

>  <natAnalog>  (289)
X

>  <pdbName>  (289)
OIE

$$$$

     RDKit          2D

 13 14  0  0  0  0  0  0  0  0999 V2000
    1.1387   -0.0305    0.0000 N   0  0  0  0  0  0  0  0  0  0  0  0
    1.9233   -0.2854    0.0000 C   0  0  0  0  0  0  0  0  0  0  0  0
    2.6378    0.1271    0.0000 C   0  0  0  0  0  0  0  0  0  0  0  0
    3.3523   -0.2854    0.0000 C   0  0  0  0  0  0  0  0  0  0  0  0
    3.3523   -1.1104    0.0000 C   0  0  0  0  0  0  0  0  0  0  0  0
    2.6378   -1.5229    0.0000 C   0  0  0  0  0  0  0  0  0  0  0  0
    1.9233   -1.1104    0.0000 C   0  0  0  0  0  0  0  0  0  0  0  0
    1.1387   -1.3654    0.0000 C   0  0  0  0  0  0  0  0  0  0  0  0
    0.6538   -0.6979    0.0000 C   0  0  0  0  0  0  0  0  0  0  0  0
   -0.1712   -0.6979    0.0000 C   0  0  0  0  0  0  0  0  0  0  0  0
   -0.5837    0.0165    0.0000 O   0  0  0  0  0  0  0  0  0  0  0  0
    0.8838    0.7541    0.0000 R#  0  0  0  0  0  0  0  0  0  0  0  0
   -0.5837   -1.4124    0.0000 R#  0  0  0  0  0  0  0  0  0  0  0  0
 12  1  1  0
  1  2  1  0
  2  3  1  0
  3  4  1  0
  4  5  1  0
  5  6  1  0
  6  7  1  0
  2  7  1  0
  7  8  1  0
  9  8  1  0
  9  1  1  0
  9 10  1  1
 10 13  1  0
 10 11  2  0
M  RGP  2  12   1  13   2
V   12 *
V   13 *
M  END
>  <m_name>  (290)
(2S)-octahydro-1H-indole-2-carboxylic acid

>  <symbol>  (290)
Oic_3axi_7axi

>  <m_abbr>  (290)
Oic_3axi_7axi

>  <m_type>  (290)
aa

>  <m_subtype>  (290)
non-natural

>  <m_Rgroups>  (290)
H,OH,None,None

>  <m_RgroupIdx>  (290)
11,12,None,None

>  <m_attachmentPointIdx>  (290)
0,9,None,None

>  <natAnalog>  (290)
X

>  <pdbName>  (290)
OIF

$$$$

     RDKit          2D

 14 14  0  0  0  0  0  0  0  0999 V2000
    0.7145    2.0625    0.0000 F   0  0  0  0  0  0  0  0  0  0  0  0
    0.7145    1.2375    0.0000 C   0  0  0  0  0  0  0  0  0  0  0  0
    1.4289    0.8250    0.0000 C   0  0  0  0  0  0  0  0  0  0  0  0
    1.4289    0.0000    0.0000 C   0  0  0  0  0  0  0  0  0  0  0  0
    0.7145   -0.4125    0.0000 C   0  0  0  0  0  0  0  0  0  0  0  0
    0.0000    0.0000    0.0000 C   0  0  0  0  0  0  0  0  0  0  0  0
    0.0000    0.8250    0.0000 C   0  0  0  0  0  0  0  0  0  0  0  0
   -0.7145    1.2375    0.0000 C   0  0  0  0  0  0  0  0  0  0  0  0
   -1.4289    0.8250    0.0000 C   0  0  0  0  0  0  0  0  0  0  0  0
   -2.1434    1.2375    0.0000 N   0  0  0  0  0  0  0  0  0  0  0  0
   -1.4289    0.0000    0.0000 C   0  0  0  0  0  0  0  0  0  0  0  0
   -0.7145   -0.4125    0.0000 O   0  0  0  0  0  0  0  0  0  0  0  0
   -2.8579    0.8250    0.0000 R#  0  0  0  0  0  0  0  0  0  0  0  0
   -2.1434   -0.4125    0.0000 R#  0  0  0  0  0  0  0  0  0  0  0  0
  1  2  1  0
  2  3  2  0
  3  4  1  0
  4  5  2  0
  5  6  1  0
  6  7  2  0
  2  7  1  0
  7  8  1  0
  9  8  1  1
  9 10  1  0
 10 13  1  0
  9 11  1  0
 11 14  1  0
 11 12  2  0
M  RGP  2  13   1  14   2
V   13 *
V   14 *
M  END
>  <m_name>  (291)
(2S)-2-amino-3-(2-fluorophenyl)propanoic acid

>  <symbol>  (291)
Phe_2F

>  <m_abbr>  (291)
Phe_2F

>  <m_type>  (291)
aa

>  <m_subtype>  (291)
non-natural

>  <m_Rgroups>  (291)
H,OH,None,None

>  <m_RgroupIdx>  (291)
12,13,None,None

>  <m_attachmentPointIdx>  (291)
9,10,None,None

>  <natAnalog>  (291)
F

>  <pdbName>  (291)
PKW

$$$$

     RDKit          2D

 14 14  0  0  0  0  0  0  0  0999 V2000
    0.7145    2.0625    0.0000 F   0  0  0  0  0  0  0  0  0  0  0  0
    0.7145    1.2375    0.0000 C   0  0  0  0  0  0  0  0  0  0  0  0
    1.4289    0.8250    0.0000 C   0  0  0  0  0  0  0  0  0  0  0  0
    1.4289    0.0000    0.0000 C   0  0  0  0  0  0  0  0  0  0  0  0
    0.7145   -0.4125    0.0000 C   0  0  0  0  0  0  0  0  0  0  0  0
    0.0000    0.0000    0.0000 C   0  0  0  0  0  0  0  0  0  0  0  0
   -0.7145   -0.4125    0.0000 C   0  0  0  0  0  0  0  0  0  0  0  0
   -0.7145   -1.2375    0.0000 C   0  0  0  0  0  0  0  0  0  0  0  0
   -1.4289   -1.6500    0.0000 N   0  0  0  0  0  0  0  0  0  0  0  0
    0.0000   -1.6500    0.0000 C   0  0  0  0  0  0  0  0  0  0  0  0
    0.7145   -1.2375    0.0000 O   0  0  0  0  0  0  0  0  0  0  0  0
    0.0000    0.8250    0.0000 C   0  0  0  0  0  0  0  0  0  0  0  0
   -1.4289   -2.4750    0.0000 R#  0  0  0  0  0  0  0  0  0  0  0  0
    0.0000   -2.4750    0.0000 R#  0  0  0  0  0  0  0  0  0  0  0  0
  1  2  1  0
  2  3  2  0
  3  4  1  0
  4  5  2  0
  5  6  1  0
  6  7  1  0
  8  7  1  1
  8  9  1  0
  9 13  1  0
  8 10  1  0
 10 14  1  0
 10 11  2  0
  6 12  2  0
  2 12  1  0
M  RGP  2  13   1  14   2
V   13 *
V   14 *
M  END
>  <m_name>  (292)
(2S)-2-amino-3-(3-fluorophenyl)propanoic acid

>  <symbol>  (292)
Phe_3F

>  <m_abbr>  (292)
Phe_3F

>  <m_type>  (292)
aa

>  <m_subtype>  (292)
non-natural

>  <m_Rgroups>  (292)
H,OH,None,None

>  <m_RgroupIdx>  (292)
12,13,None,None

>  <m_attachmentPointIdx>  (292)
8,9,None,None

>  <natAnalog>  (292)
F

>  <pdbName>  (292)
PKX

$$$$

     RDKit          2D

 14 14  0  0  0  0  0  0  0  0999 V2000
    0.7145    2.0625    0.0000 F   0  0  0  0  0  0  0  0  0  0  0  0
    0.7145    1.2375    0.0000 C   0  0  0  0  0  0  0  0  0  0  0  0
    1.4289    0.8250    0.0000 C   0  0  0  0  0  0  0  0  0  0  0  0
    1.4289    0.0000    0.0000 C   0  0  0  0  0  0  0  0  0  0  0  0
    0.7145   -0.4125    0.0000 C   0  0  0  0  0  0  0  0  0  0  0  0
    0.7145   -1.2375    0.0000 C   0  0  0  0  0  0  0  0  0  0  0  0
    1.4289   -1.6500    0.0000 C   0  0  0  0  0  0  0  0  0  0  0  0
    1.4289   -2.4750    0.0000 N   0  0  0  0  0  0  0  0  0  0  0  0
    2.1434   -1.2375    0.0000 C   0  0  0  0  0  0  0  0  0  0  0  0
    2.1434   -0.4125    0.0000 O   0  0  0  0  0  0  0  0  0  0  0  0
    0.0000    0.0000    0.0000 C   0  0  0  0  0  0  0  0  0  0  0  0
    0.0000    0.8250    0.0000 C   0  0  0  0  0  0  0  0  0  0  0  0
    2.1434   -2.8875    0.0000 R#  0  0  0  0  0  0  0  0  0  0  0  0
    2.8579   -1.6500    0.0000 R#  0  0  0  0  0  0  0  0  0  0  0  0
  1  2  1  0
  2  3  2  0
  3  4  1  0
  4  5  2  0
  5  6  1  0
  7  6  1  1
  7  8  1  0
  8 13  1  0
  7  9  1  0
  9 14  1  0
  9 10  2  0
  5 11  1  0
 11 12  2  0
  2 12  1  0
M  RGP  2  13   1  14   2
V   13 *
V   14 *
M  END
>  <m_name>  (293)
(2S)-2-amino-3-(4-fluorophenyl)propanoic acid

>  <symbol>  (293)
Phe_4F

>  <m_abbr>  (293)
Phe_4F

>  <m_type>  (293)
aa

>  <m_subtype>  (293)
non-natural

>  <m_Rgroups>  (293)
H,OH,None,None

>  <m_RgroupIdx>  (293)
12,13,None,None

>  <m_attachmentPointIdx>  (293)
7,8,None,None

>  <natAnalog>  (293)
F

>  <pdbName>  (293)
PLN

$$$$

     RDKit          2D

 16 16  0  0  0  0  0  0  0  0999 V2000
    0.7145   -1.2375    0.0000 N   0  0  0  0  0  0  0  0  0  0  0  0
    1.4289   -1.6500    0.0000 O   0  0  0  0  0  0  0  0  0  0  0  0
    0.0000   -1.6500    0.0000 O   0  0  0  0  0  0  0  0  0  0  0  0
    0.7145   -0.4125    0.0000 C   0  0  0  0  0  0  0  0  0  0  0  0
    1.4289    0.0000    0.0000 C   0  0  0  0  0  0  0  0  0  0  0  0
    0.0000    0.0000    0.0000 C   0  0  0  0  0  0  0  0  0  0  0  0
    1.4289    0.8250    0.0000 C   0  0  0  0  0  0  0  0  0  0  0  0
    0.0000    0.8250    0.0000 C   0  0  0  0  0  0  0  0  0  0  0  0
    0.7145    1.2375    0.0000 C   0  0  0  0  0  0  0  0  0  0  0  0
    0.7145    2.0625    0.0000 C   0  0  0  0  0  0  0  0  0  0  0  0
    0.0000    2.4750    0.0000 C   0  0  0  0  0  0  0  0  0  0  0  0
    0.0000    3.3000    0.0000 N   0  0  0  0  0  0  0  0  0  0  0  0
   -0.7145    2.0625    0.0000 C   0  0  0  0  0  0  0  0  0  0  0  0
   -1.4289    2.4750    0.0000 O   0  0  0  0  0  0  0  0  0  0  0  0
   -0.7145    3.7125    0.0000 R#  0  0  0  0  0  0  0  0  0  0  0  0
   -0.7145    1.2375    0.0000 R#  0  0  0  0  0  0  0  0  0  0  0  0
  2  1  1  0
  1  3  2  0
  4  1  1  0
  5  4  2  0
  4  6  1  0
  7  5  1  0
  6  8  2  0
  9  7  2  0
  9  8  1  0
 10  9  1  0
 11 10  1  1
 11 12  1  0
 11 13  1  0
 15 12  1  0
 13 16  1  0
 13 14  2  0
M  CHG  2   1   1   2  -1
M  RGP  2  15   1  16   2
V   15 *
V   16 *
M  END
>  <m_name>  (294)
(2S)-2-amino-3-(4-nitrophenyl)propanoic acid

>  <symbol>  (294)
Phe_4NO2

>  <m_abbr>  (294)
Phe_4NO2

>  <m_type>  (294)
aa

>  <m_subtype>  (294)
non-natural

>  <m_Rgroups>  (294)
H,OH,None,None

>  <m_RgroupIdx>  (294)
14,15,None,None

>  <m_attachmentPointIdx>  (294)
11,12,None,None

>  <natAnalog>  (294)
F

>  <pdbName>  (294)
POE

$$$$

     RDKit          2D

 15 15  0  0  0  0  0  0  0  0999 V2000
   -0.1105    2.0625    0.0000 C   0  0  0  0  0  0  0  0  0  0  0  0
    0.7145    2.0625    0.0000 C   0  0  0  0  0  0  0  0  0  0  0  0
    1.5395    2.0625    0.0000 C   0  0  0  0  0  0  0  0  0  0  0  0
    0.7145    2.8875    0.0000 C   0  0  0  0  0  0  0  0  0  0  0  0
    0.0000    3.3000    0.0000 N   0  0  0  0  0  0  0  0  0  0  0  0
    1.4289    3.3000    0.0000 C   0  0  0  0  0  0  0  0  0  0  0  0
    2.1434    2.8875    0.0000 O   0  0  0  0  0  0  0  0  0  0  0  0
    0.7145    1.2375    0.0000 C   0  0  0  0  0  0  0  0  0  0  0  0
    1.4289    0.8250    0.0000 C   0  0  0  0  0  0  0  0  0  0  0  0
    1.4289    0.0000    0.0000 C   0  0  0  0  0  0  0  0  0  0  0  0
    0.7145   -0.4125    0.0000 C   0  0  0  0  0  0  0  0  0  0  0  0
    0.0000    0.0000    0.0000 C   0  0  0  0  0  0  0  0  0  0  0  0
    0.0000    0.8250    0.0000 C   0  0  0  0  0  0  0  0  0  0  0  0
    0.0000    4.1250    0.0000 R#  0  0  0  0  0  0  0  0  0  0  0  0
    1.4289    4.1250    0.0000 R#  0  0  0  0  0  0  0  0  0  0  0  0
  1  2  1  0
  2  3  1  0
  4  2  1  0
  4  5  1  6
  5 14  1  0
  4  6  1  0
  6 15  1  0
  6  7  2  0
  2  8  1  0
  8  9  2  0
  9 10  1  0
 10 11  2  0
 11 12  1  0
 12 13  2  0
  8 13  1  0
M  RGP  2  14   1  15   2
V   14 *
V   15 *
M  END
>  <m_name>  (295)
(2S)-2-amino-3-methyl-3-phenylbutanoic acid

>  <symbol>  (295)
Phe_bbdiMe

>  <m_abbr>  (295)
Phe_bbdiMe

>  <m_type>  (295)
aa

>  <m_subtype>  (295)
non-natural

>  <m_Rgroups>  (295)
H,OH,None,None

>  <m_RgroupIdx>  (295)
13,14,None,None

>  <m_attachmentPointIdx>  (295)
4,5,None,None

>  <natAnalog>  (295)
F

>  <pdbName>  (295)
PPA

$$$$

     RDKit          2D

 17 18  0  0  0  0  0  0  0  0999 V2000
    4.0668    2.3479    0.0000 O   0  0  0  0  0  0  0  0  0  0  0  0
    3.3523    1.9354    0.0000 C   0  0  0  0  0  0  0  0  0  0  0  0
    3.3523    1.1104    0.0000 C   0  0  0  0  0  0  0  0  0  0  0  0
    2.6378    0.6979    0.0000 C   0  0  0  0  0  0  0  0  0  0  0  0
    1.9233    1.1104    0.0000 C   0  0  0  0  0  0  0  0  0  0  0  0
    1.1387    0.8555    0.0000 N   0  0  0  0  0  0  0  0  0  0  0  0
    0.6538    1.5229    0.0000 C   0  0  0  0  0  0  0  0  0  0  0  0
    1.1387    2.1904    0.0000 C   0  0  0  0  0  0  0  0  0  0  0  0
    0.8838    2.9750    0.0000 C   0  0  0  0  0  0  0  0  0  0  0  0
    0.0768    3.1465    0.0000 C   0  0  0  0  0  0  0  0  0  0  0  0
   -0.1781    3.9312    0.0000 N   0  0  0  0  0  0  0  0  0  0  0  0
   -0.4752    2.5334    0.0000 C   0  0  0  0  0  0  0  0  0  0  0  0
   -0.2203    1.7488    0.0000 O   0  0  0  0  0  0  0  0  0  0  0  0
    1.9233    1.9354    0.0000 C   0  0  0  0  0  0  0  0  0  0  0  0
    2.6378    2.3479    0.0000 C   0  0  0  0  0  0  0  0  0  0  0  0
   -0.9851    4.1027    0.0000 R#  0  0  0  0  0  0  0  0  0  0  0  0
   -1.2822    2.7050    0.0000 R#  0  0  0  0  0  0  0  0  0  0  0  0
  1  2  1  0
  2  3  2  0
  3  4  1  0
  4  5  2  0
  5  6  1  0
  6  7  1  0
  7  8  2  0
  8  9  1  0
 10  9  1  1
 10 11  1  0
 11 16  1  0
 10 12  1  0
 12 17  1  0
 12 13  2  0
  8 14  1  0
  5 14  1  0
 14 15  2  0
  2 15  1  0
M  RGP  2  16   1  17   2
V   16 *
V   17 *
M  END
>  <m_name>  (296)
(2S)-2-amino-3-(5-hydroxy-1H-indol-3-yl)propanoic acid

>  <symbol>  (296)
Trp_5OH

>  <m_abbr>  (296)
Trp_5OH

>  <m_type>  (296)
aa

>  <m_subtype>  (296)
non-natural

>  <m_Rgroups>  (296)
H,OH,None,None

>  <m_RgroupIdx>  (296)
15,16,None,None

>  <m_attachmentPointIdx>  (296)
10,11,None,None

>  <natAnalog>  (296)
W

>  <pdbName>  (296)
TE3

$$$$

     RDKit          2D

 18 19  0  0  0  0  0  0  0  0999 V2000
    1.4358   -2.7631    0.0000 C   0  0  0  0  0  0  0  0  0  0  0  0
    0.8838   -2.1500    0.0000 O   0  0  0  0  0  0  0  0  0  0  0  0
    1.1387   -1.3654    0.0000 N   0  0  0  0  0  0  0  0  0  0  0  0
    0.6538   -0.6979    0.0000 C   0  0  0  0  0  0  0  0  0  0  0  0
    1.1387   -0.0305    0.0000 C   0  0  0  0  0  0  0  0  0  0  0  0
    0.8838    0.7541    0.0000 C   0  0  0  0  0  0  0  0  0  0  0  0
    0.0768    0.9256    0.0000 C   0  0  0  0  0  0  0  0  0  0  0  0
   -0.1781    1.7103    0.0000 N   0  0  0  0  0  0  0  0  0  0  0  0
   -0.4752    0.3126    0.0000 C   0  0  0  0  0  0  0  0  0  0  0  0
   -0.2203   -0.4721    0.0000 O   0  0  0  0  0  0  0  0  0  0  0  0
    1.9233   -0.2854    0.0000 C   0  0  0  0  0  0  0  0  0  0  0  0
    2.6378    0.1271    0.0000 C   0  0  0  0  0  0  0  0  0  0  0  0
    3.3523   -0.2854    0.0000 C   0  0  0  0  0  0  0  0  0  0  0  0
    3.3523   -1.1104    0.0000 C   0  0  0  0  0  0  0  0  0  0  0  0
    2.6378   -1.5229    0.0000 C   0  0  0  0  0  0  0  0  0  0  0  0
    1.9233   -1.1104    0.0000 C   0  0  0  0  0  0  0  0  0  0  0  0
   -0.9851    1.8818    0.0000 R#  0  0  0  0  0  0  0  0  0  0  0  0
   -1.2822    0.4841    0.0000 R#  0  0  0  0  0  0  0  0  0  0  0  0
  1  2  1  0
  2  3  1  0
  3  4  1  0
  4  5  2  0
  5  6  1  0
  7  6  1  1
  7  8  1  0
  8 17  1  0
  7  9  1  0
  9 18  1  0
  9 10  2  0
  5 11  1  0
 11 12  2  0
 12 13  1  0
 13 14  2  0
 14 15  1  0
 15 16  2  0
  3 16  1  0
 11 16  1  0
M  RGP  2  17   1  18   2
V   17 *
V   18 *
M  END
>  <m_name>  (297)
(2S)-2-amino-3-(1-methoxy-1H-indol-3-yl)propanoic acid

>  <symbol>  (297)
Trp_Ome

>  <m_abbr>  (297)
Trp_Ome

>  <m_type>  (297)
aa

>  <m_subtype>  (297)
non-natural

>  <m_Rgroups>  (297)
H,OH,None,None

>  <m_RgroupIdx>  (297)
16,17,None,None

>  <m_attachmentPointIdx>  (297)
7,8,None,None

>  <natAnalog>  (297)
W

>  <pdbName>  (297)
TE9

$$$$

     RDKit          2D

 16 16  0  0  0  0  0  0  0  0999 V2000
    0.7145    2.0625    0.0000 O   0  0  0  0  0  0  0  0  0  0  0  0
    0.7145    1.2375    0.0000 C   0  0  0  0  0  0  0  0  0  0  0  0
    1.4289    0.8250    0.0000 C   0  0  0  0  0  0  0  0  0  0  0  0
    2.1434    1.2375    0.0000 I   0  0  0  0  0  0  0  0  0  0  0  0
    1.4289    0.0000    0.0000 C   0  0  0  0  0  0  0  0  0  0  0  0
    0.7145   -0.4125    0.0000 C   0  0  0  0  0  0  0  0  0  0  0  0
    0.7145   -1.2375    0.0000 C   0  0  0  0  0  0  0  0  0  0  0  0
    1.4289   -1.6500    0.0000 C   0  0  0  0  0  0  0  0  0  0  0  0
    1.4289   -2.4750    0.0000 N   0  0  0  0  0  0  0  0  0  0  0  0
    2.1434   -1.2375    0.0000 C   0  0  0  0  0  0  0  0  0  0  0  0
    2.1434   -0.4125    0.0000 O   0  0  0  0  0  0  0  0  0  0  0  0
    0.0000    0.0000    0.0000 C   0  0  0  0  0  0  0  0  0  0  0  0
    0.0000    0.8250    0.0000 C   0  0  0  0  0  0  0  0  0  0  0  0
   -0.7145    1.2375    0.0000 I   0  0  0  0  0  0  0  0  0  0  0  0
    2.1434   -2.8875    0.0000 R#  0  0  0  0  0  0  0  0  0  0  0  0
    2.8579   -1.6500    0.0000 R#  0  0  0  0  0  0  0  0  0  0  0  0
  1  2  1  0
  2  3  2  0
  3  4  1  0
  3  5  1  0
  5  6  2  0
  6  7  1  0
  8  7  1  1
  8  9  1  0
  9 15  1  0
  8 10  1  0
 10 16  1  0
 10 11  2  0
  6 12  1  0
 12 13  2  0
  2 13  1  0
 13 14  1  0
M  RGP  2  15   1  16   2
V   15 *
V   16 *
M  END
>  <m_name>  (298)
(2S)-2-amino-3-(4-hydroxy-3,5-diiodophenyl)propanoic acid

>  <symbol>  (298)
Tyr_35diI

>  <m_abbr>  (298)
Tyr_35diI

>  <m_type>  (298)
aa

>  <m_subtype>  (298)
non-natural

>  <m_Rgroups>  (298)
H,OH,None,None

>  <m_RgroupIdx>  (298)
14,15,None,None

>  <m_attachmentPointIdx>  (298)
8,9,None,None

>  <natAnalog>  (298)
Y

>  <pdbName>  (298)
TFW

$$$$

     RDKit          2D

 15 15  0  0  0  0  0  0  0  0999 V2000
    0.7145    2.0625    0.0000 O   0  0  0  0  0  0  0  0  0  0  0  0
    0.7145    1.2375    0.0000 C   0  0  0  0  0  0  0  0  0  0  0  0
    1.4289    0.8250    0.0000 C   0  0  0  0  0  0  0  0  0  0  0  0
    1.4289    0.0000    0.0000 C   0  0  0  0  0  0  0  0  0  0  0  0
    0.7145   -0.4125    0.0000 C   0  0  0  0  0  0  0  0  0  0  0  0
    0.7145   -1.2375    0.0000 C   0  0  0  0  0  0  0  0  0  0  0  0
    1.4289   -1.6500    0.0000 C   0  0  0  0  0  0  0  0  0  0  0  0
    1.4289   -2.4750    0.0000 N   0  0  0  0  0  0  0  0  0  0  0  0
    2.1434   -1.2375    0.0000 C   0  0  0  0  0  0  0  0  0  0  0  0
    2.1434   -0.4125    0.0000 O   0  0  0  0  0  0  0  0  0  0  0  0
    0.0000    0.0000    0.0000 C   0  0  0  0  0  0  0  0  0  0  0  0
    0.0000    0.8250    0.0000 C   0  0  0  0  0  0  0  0  0  0  0  0
   -0.7145    1.2375    0.0000 O   0  0  0  0  0  0  0  0  0  0  0  0
    2.1434   -2.8875    0.0000 R#  0  0  0  0  0  0  0  0  0  0  0  0
    2.8579   -1.6500    0.0000 R#  0  0  0  0  0  0  0  0  0  0  0  0
  1  2  1  0
  2  3  2  0
  3  4  1  0
  4  5  2  0
  5  6  1  0
  7  6  1  1
  7  8  1  0
  8 14  1  0
  7  9  1  0
  9 15  1  0
  9 10  2  0
  5 11  1  0
 11 12  2  0
  2 12  1  0
 12 13  1  0
M  RGP  2  14   1  15   2
V   14 *
V   15 *
M  END
>  <m_name>  (299)
(2S)-2-amino-3-(3,4-dihydroxyphenyl)propanoic acid

>  <symbol>  (299)
Tyr_3OH

>  <m_abbr>  (299)
Tyr_3OH

>  <m_type>  (299)
aa

>  <m_subtype>  (299)
non-natural

>  <m_Rgroups>  (299)
H,OH,None,None

>  <m_RgroupIdx>  (299)
13,14,None,None

>  <m_attachmentPointIdx>  (299)
7,8,None,None

>  <natAnalog>  (299)
Y

>  <pdbName>  (299)
TF9

$$$$

     RDKit          2D

 15 15  0  0  0  0  0  0  0  0999 V2000
    0.0000    2.4750    0.0000 C   0  0  0  0  0  0  0  0  0  0  0  0
    0.7145    2.0625    0.0000 O   0  0  0  0  0  0  0  0  0  0  0  0
    0.7145    1.2375    0.0000 C   0  0  0  0  0  0  0  0  0  0  0  0
    1.4289    0.8250    0.0000 C   0  0  0  0  0  0  0  0  0  0  0  0
    1.4289    0.0000    0.0000 C   0  0  0  0  0  0  0  0  0  0  0  0
    0.7145   -0.4125    0.0000 C   0  0  0  0  0  0  0  0  0  0  0  0
    0.7145   -1.2375    0.0000 C   0  0  0  0  0  0  0  0  0  0  0  0
    1.4289   -1.6500    0.0000 C   0  0  0  0  0  0  0  0  0  0  0  0
    1.4289   -2.4750    0.0000 N   0  0  0  0  0  0  0  0  0  0  0  0
    2.1434   -1.2375    0.0000 C   0  0  0  0  0  0  0  0  0  0  0  0
    2.1434   -0.4125    0.0000 O   0  0  0  0  0  0  0  0  0  0  0  0
    0.0000    0.0000    0.0000 C   0  0  0  0  0  0  0  0  0  0  0  0
    0.0000    0.8250    0.0000 C   0  0  0  0  0  0  0  0  0  0  0  0
    2.1434   -2.8875    0.0000 R#  0  0  0  0  0  0  0  0  0  0  0  0
    2.8579   -1.6500    0.0000 R#  0  0  0  0  0  0  0  0  0  0  0  0
  1  2  1  0
  2  3  1  0
  3  4  2  0
  4  5  1  0
  5  6  2  0
  6  7  1  0
  8  7  1  1
  8  9  1  0
  9 14  1  0
  8 10  1  0
 10 15  1  0
 10 11  2  0
  6 12  1  0
 12 13  2  0
  3 13  1  0
M  RGP  2  14   1  15   2
V   14 *
V   15 *
M  END
>  <m_name>  (300)
(2S)-2-amino-3-(4-methoxyphenyl)propanoic acid

>  <symbol>  (300)
Tyr_Me

>  <m_abbr>  (300)
Tyr_Me

>  <m_type>  (300)
aa

>  <m_subtype>  (300)
non-natural

>  <m_Rgroups>  (300)
H,OH,None,None

>  <m_RgroupIdx>  (300)
13,14,None,None

>  <m_attachmentPointIdx>  (300)
8,9,None,None

>  <natAnalog>  (300)
Y

>  <pdbName>  (300)
TGI

$$$$

     RDKit          2D

 18 18  0  0  0  0  0  0  0  0999 V2000
   -0.7145    2.8875    0.0000 O   0  0  0  0  0  0  0  0  0  0  0  0
    0.0000    2.4750    0.0000 P   0  0  0  0  0  0  0  0  0  0  0  0
   -0.4125    1.7605    0.0000 O   0  0  0  0  0  0  0  0  0  0  0  0
    0.4125    3.1895    0.0000 O   0  0  0  0  0  0  0  0  0  0  0  0
    0.7145    2.0625    0.0000 O   0  0  0  0  0  0  0  0  0  0  0  0
    0.7145    1.2375    0.0000 C   0  0  0  0  0  0  0  0  0  0  0  0
    1.4289    0.8250    0.0000 C   0  0  0  0  0  0  0  0  0  0  0  0
    1.4289    0.0000    0.0000 C   0  0  0  0  0  0  0  0  0  0  0  0
    0.7145   -0.4125    0.0000 C   0  0  0  0  0  0  0  0  0  0  0  0
    0.7145   -1.2375    0.0000 C   0  0  0  0  0  0  0  0  0  0  0  0
    1.4289   -1.6500    0.0000 C   0  0  0  0  0  0  0  0  0  0  0  0
    1.4289   -2.4750    0.0000 N   0  0  0  0  0  0  0  0  0  0  0  0
    2.1434   -1.2375    0.0000 C   0  0  0  0  0  0  0  0  0  0  0  0
    2.1434   -0.4125    0.0000 O   0  0  0  0  0  0  0  0  0  0  0  0
    0.0000    0.0000    0.0000 C   0  0  0  0  0  0  0  0  0  0  0  0
    0.0000    0.8250    0.0000 C   0  0  0  0  0  0  0  0  0  0  0  0
    2.1434   -2.8875    0.0000 R#  0  0  0  0  0  0  0  0  0  0  0  0
    2.8579   -1.6500    0.0000 R#  0  0  0  0  0  0  0  0  0  0  0  0
  1  2  1  0
  2  3  1  0
  2  4  2  0
  2  5  1  0
  5  6  1  0
  6  7  2  0
  7  8  1  0
  8  9  2  0
  9 10  1  0
 11 10  1  1
 11 12  1  0
 12 17  1  0
 11 13  1  0
 13 18  1  0
 13 14  2  0
  9 15  1  0
 15 16  2  0
  6 16  1  0
M  RGP  2  17   1  18   2
V   17 *
V   18 *
M  END
>  <m_name>  (301)
(2S)-2-amino-3-[4-(phosphonooxy)phenyl]propanoic acid

>  <symbol>  (301)
Tyr_PO3H2

>  <m_abbr>  (301)
Tyr_PO3H2

>  <m_type>  (301)
aa

>  <m_subtype>  (301)
non-natural

>  <m_Rgroups>  (301)
H,OH,None,None

>  <m_RgroupIdx>  (301)
16,17,None,None

>  <m_attachmentPointIdx>  (301)
11,12,None,None

>  <natAnalog>  (301)
Y

>  <pdbName>  (301)
TGO

$$$$

     RDKit          2D

 10 10  0  0  0  0  0  0  0  0999 V2000
    0.5678    1.9393    0.0000 O   0  0  0  0  0  0  0  0  0  0  0  0
    0.5678    1.1143    0.0000 C   0  0  0  0  0  0  0  0  0  0  0  0
    1.2352    0.6294    0.0000 C   0  0  0  0  0  0  0  0  0  0  0  0
    0.9803   -0.1553    0.0000 C   0  0  0  0  0  0  0  0  0  0  0  0
    0.1553   -0.1553    0.0000 N   0  0  0  0  0  0  0  0  0  0  0  0
   -0.0997    0.6294    0.0000 C   0  0  0  0  0  0  0  0  0  0  0  0
    1.4652   -0.8227    0.0000 C   0  0  0  0  0  0  0  0  0  0  0  0
    1.1296   -1.5764    0.0000 O   0  0  0  0  0  0  0  0  0  0  0  0
   -0.3297   -0.8227    0.0000 R#  0  0  0  0  0  0  0  0  0  0  0  0
    2.2857   -0.7365    0.0000 R#  0  0  0  0  0  0  0  0  0  0  0  0
  1  2  1  0
  2  3  1  0
  4  3  1  0
  4  5  1  0
  5  9  1  0
  5  6  1  0
  2  6  1  0
  4  7  1  1
  7 10  1  0
  7  8  2  0
M  RGP  2   9   1  10   2
V    9 *
V   10 *
M  END
>  <m_name>  (302)
(2S)-4-hydroxypyrrolidine-2-carboxylic acid

>  <symbol>  (302)
xiHyp

>  <m_abbr>  (302)
xiHyp

>  <m_type>  (302)
aa

>  <m_subtype>  (302)
non-natural

>  <m_Rgroups>  (302)
H,OH,None,None

>  <m_RgroupIdx>  (302)
8,9,None,None

>  <m_attachmentPointIdx>  (302)
4,6,None,None

>  <natAnalog>  (302)
P

>  <pdbName>  (302)
XIB

$$$$

     RDKit          2D

  9  8  0  0  0  0  0  0  0  0999 V2000
    0.0000   -1.4289    0.0000 C   0  0  0  0  0  0  0  0  0  0  0  0
    0.8250   -1.4289    0.0000 C   0  0  0  0  0  0  0  0  0  0  0  0
    1.2375   -2.1434    0.0000 O   0  0  0  0  0  0  0  0  0  0  0  0
    1.2375   -0.7145    0.0000 C   0  0  0  0  0  0  0  0  0  0  0  0
    2.0625   -0.7145    0.0000 N   0  0  0  0  0  0  0  0  0  0  0  0
    0.8250    0.0000    0.0000 C   0  0  0  0  0  0  0  0  0  0  0  0
    0.0000    0.0000    0.0000 O   0  0  0  0  0  0  0  0  0  0  0  0
    2.4750    0.0000    0.0000 R#  0  0  0  0  0  0  0  0  0  0  0  0
    1.2375    0.7145    0.0000 R#  0  0  0  0  0  0  0  0  0  0  0  0
  1  2  1  0
  2  3  1  0
  4  2  1  0
  4  5  1  1
  5  8  1  0
  4  6  1  0
  6  9  1  0
  6  7  2  0
M  RGP  2   8   1   9   2
V    8 *
V    9 *
M  END
>  <m_name>  (303)
(2S)-2-amino-3-hydroxybutanoic acid

>  <symbol>  (303)
xiThr

>  <m_abbr>  (303)
xiThr

>  <m_type>  (303)
aa

>  <m_subtype>  (303)
non-natural

>  <m_Rgroups>  (303)
H,OH,None,None

>  <m_RgroupIdx>  (303)
7,8,None,None

>  <m_attachmentPointIdx>  (303)
4,5,None,None

>  <natAnalog>  (303)
T

>  <pdbName>  (303)
XIT

$$$$

     RDKit          2D

 12 12  0  0  0  0  0  0  0  0999 V2000
    0.0000    2.4750    0.0000 C   0  0  0  0  0  0  0  0  0  0  0  0
    0.7145    2.0625    0.0000 N   0  0  0  0  0  0  0  0  0  0  0  0
    0.7145    1.2375    0.0000 C   0  0  0  0  0  0  0  0  0  0  0  0
    1.4289    0.8250    0.0000 C   0  0  0  0  0  0  0  0  0  0  0  0
    1.4289    0.0000    0.0000 C   0  0  0  0  0  0  0  0  0  0  0  0
    0.7145   -0.4125    0.0000 C   0  0  0  0  0  0  0  0  0  0  0  0
    0.0000    0.0000    0.0000 C   0  0  0  0  0  0  0  0  0  0  0  0
    0.0000    0.8250    0.0000 C   0  0  0  0  0  0  0  0  0  0  0  0
    0.7145   -1.2375    0.0000 C   0  0  0  0  0  0  0  0  0  0  0  0
    0.0000   -1.6500    0.0000 O   0  0  0  0  0  0  0  0  0  0  0  0
    1.4289    2.4750    0.0000 R#  0  0  0  0  0  0  0  0  0  0  0  0
    1.4289   -1.6500    0.0000 R#  0  0  0  0  0  0  0  0  0  0  0  0
  1  2  1  0
  2 11  1  0
  2  3  1  0
  3  4  2  0
  4  5  1  0
  5  6  2  0
  6  7  1  0
  7  8  2  0
  3  8  1  0
  6  9  1  0
  9 12  1  0
  9 10  2  0
M  RGP  2  11   1  12   2
V   11 *
V   12 *
M  END
>  <m_name>  (304)
4-(methylamino)benzoic acid

>  <symbol>  (304)
NMe4Abz

>  <m_abbr>  (304)
NMe4Abz

>  <m_type>  (304)
aa

>  <m_subtype>  (304)
non-natural

>  <m_Rgroups>  (304)
H,OH,None,None

>  <m_RgroupIdx>  (304)
10,11,None,None

>  <m_attachmentPointIdx>  (304)
1,8,None,None

>  <natAnalog>  (304)
X

>  <pdbName>  (304)
NB6

$$$$

     RDKit          2D

 15 15  0  0  0  0  0  0  0  0999 V2000
    1.8414    1.7605    0.0000 C   0  0  0  0  0  0  0  0  0  0  0  0
    1.4289    2.4750    0.0000 C   0  0  0  0  0  0  0  0  0  0  0  0
    0.7145    2.0625    0.0000 C   0  0  0  0  0  0  0  0  0  0  0  0
    0.7145    1.2375    0.0000 C   0  0  0  0  0  0  0  0  0  0  0  0
    1.4289    0.8250    0.0000 C   0  0  0  0  0  0  0  0  0  0  0  0
    1.4289    0.0000    0.0000 C   0  0  0  0  0  0  0  0  0  0  0  0
    0.7145   -0.4125    0.0000 C   0  0  0  0  0  0  0  0  0  0  0  0
    0.7145   -1.2375    0.0000 O   0  0  0  0  0  0  0  0  0  0  0  0
    0.0000    0.0000    0.0000 C   0  0  0  0  0  0  0  0  0  0  0  0
    0.0000    0.8250    0.0000 C   0  0  0  0  0  0  0  0  0  0  0  0
    1.0164    3.1895    0.0000 N   0  0  0  0  0  0  0  0  0  0  0  0
    2.1434    2.8875    0.0000 C   0  0  0  0  0  0  0  0  0  0  0  0
    2.8579    2.4750    0.0000 O   0  0  0  0  0  0  0  0  0  0  0  0
    0.1914    3.1895    0.0000 R#  0  0  0  0  0  0  0  0  0  0  0  0
    2.1434    3.7125    0.0000 R#  0  0  0  0  0  0  0  0  0  0  0  0
  2  1  1  1
  2  3  1  0
  3  4  1  0
  4  5  2  0
  5  6  1  0
  6  7  2  0
  7  8  1  0
  7  9  1  0
  9 10  2  0
  4 10  1  0
  2 11  1  0
 11 14  1  0
  2 12  1  0
 12 15  1  0
 12 13  2  0
M  RGP  2  14   1  15   2
V   14 *
V   15 *
M  END
>  <m_name>  (305)
(2S)-2-amino-3-(4-hydroxyphenyl)-2-methylpropanoic acid

>  <symbol>  (305)
aMeTyr

>  <m_abbr>  (305)
aMeTyr

>  <m_type>  (305)
aa

>  <m_subtype>  (305)
non-natural

>  <m_Rgroups>  (305)
H,OH,None,None

>  <m_RgroupIdx>  (305)
13,14,None,None

>  <m_attachmentPointIdx>  (305)
10,11,None,None

>  <natAnalog>  (305)
Y

>  <pdbName>  (305)
AJO

$$$$

     RDKit          2D

 15 14  0  0  0  0  0  0  0  0999 V2000
    0.6430   -4.4293    0.0000 C   0  0  0  0  0  0  0  0  0  0  0  0
    1.2375   -5.0013    0.0000 C   0  0  0  0  0  0  0  0  0  0  0  0
    2.0301   -4.7725    0.0000 C   0  0  0  0  0  0  0  0  0  0  0  0
    2.2283   -3.9716    0.0000 O   0  0  0  0  0  0  0  0  0  0  0  0
    2.6246   -5.3445    0.0000 C   0  0  0  0  0  0  0  0  0  0  0  0
    3.4172   -5.1157    0.0000 C   0  0  0  0  0  0  0  0  0  0  0  0
    4.0117   -5.6877    0.0000 C   0  0  0  0  0  0  0  0  0  0  0  0
    4.8044   -5.4589    0.0000 C   0  0  0  0  0  0  0  0  0  0  0  0
    5.3988   -6.0310    0.0000 C   0  0  0  0  0  0  0  0  0  0  0  0
    6.1915   -5.8021    0.0000 C   0  0  0  0  0  0  0  0  0  0  0  0
    6.7859   -6.3742    0.0000 N   0  0  0  0  0  0  0  0  0  0  0  0
    6.3896   -5.0013    0.0000 C   0  0  0  0  0  0  0  0  0  0  0  0
    7.1823   -4.7725    0.0000 O   0  0  0  0  0  0  0  0  0  0  0  0
    7.5786   -6.1454    0.0000 R#  0  0  0  0  0  0  0  0  0  0  0  0
    5.7951   -4.4293    0.0000 R#  0  0  0  0  0  0  0  0  0  0  0  0
  1  2  1  0
  2  3  1  0
  3  4  2  0
  3  5  1  0
  5  6  1  0
  6  7  1  0
  7  8  1  0
  8  9  1  0
 10  9  1  1
 10 11  1  0
 11 14  1  0
 10 12  1  0
 12 15  1  0
 12 13  2  0
M  RGP  2  14   1  15   2
V   14 *
V   15 *
M  END
>  <m_name>  (306)
(2S)-2-amino-8-oxodecanoic acid

>  <symbol>  (306)
Aoda

>  <m_abbr>  (306)
Aoda

>  <m_type>  (306)
aa

>  <m_subtype>  (306)
non-natural

>  <m_Rgroups>  (306)
H,OH,None,None

>  <m_RgroupIdx>  (306)
13,14,None,None

>  <m_attachmentPointIdx>  (306)
10,11,None,None

>  <natAnalog>  (306)
X

>  <pdbName>  (306)
AO0

$$$$

     RDKit          2D

 21 22  0  0  0  0  0  0  0  0999 V2000
    1.4289    0.8250    0.0000 N   0  0  0  0  0  0  0  0  0  0  0  0
    1.4289    0.0000    0.0000 C   0  0  0  0  0  0  0  0  0  0  0  0
    2.1434   -0.4125    0.0000 C   0  0  0  0  0  0  0  0  0  0  0  0
    2.1434   -1.2375    0.0000 C   0  0  0  0  0  0  0  0  0  0  0  0
    2.8579   -1.6500    0.0000 C   0  0  0  0  0  0  0  0  0  0  0  0
    2.8579   -2.4750    0.0000 C   0  0  0  0  0  0  0  0  0  0  0  0
    2.1434   -2.8875    0.0000 C   0  0  0  0  0  0  0  0  0  0  0  0
    1.4289   -2.4750    0.0000 C   0  0  0  0  0  0  0  0  0  0  0  0
    1.4289   -1.6500    0.0000 C   0  0  0  0  0  0  0  0  0  0  0  0
    2.1434   -3.7125    0.0000 C   0  0  0  0  0  0  0  0  0  0  0  0
    2.8579   -4.1250    0.0000 O   0  0  0  0  0  0  0  0  0  0  0  0
    1.4289   -4.1250    0.0000 C   0  0  0  0  0  0  0  0  0  0  0  0
    1.4289   -4.9500    0.0000 C   0  0  0  0  0  0  0  0  0  0  0  0
    0.7145   -5.3625    0.0000 C   0  0  0  0  0  0  0  0  0  0  0  0
    0.0000   -4.9500    0.0000 C   0  0  0  0  0  0  0  0  0  0  0  0
    0.0000   -4.1250    0.0000 C   0  0  0  0  0  0  0  0  0  0  0  0
    0.7145   -3.7125    0.0000 C   0  0  0  0  0  0  0  0  0  0  0  0
    0.7145   -0.4125    0.0000 C   0  0  0  0  0  0  0  0  0  0  0  0
    0.0000    0.0000    0.0000 O   0  0  0  0  0  0  0  0  0  0  0  0
    0.7145    1.2375    0.0000 R#  0  0  0  0  0  0  0  0  0  0  0  0
    0.7145   -1.2375    0.0000 R#  0  0  0  0  0  0  0  0  0  0  0  0
 20  1  1  0
  2  1  1  0
  2  3  1  1
  3  4  1  0
  4  5  2  0
  5  6  1  0
  6  7  2  0
  7  8  1  0
  8  9  2  0
  4  9  1  0
  7 10  1  0
 10 11  2  0
 10 12  1  0
 12 13  2  0
 13 14  1  0
 14 15  2  0
 15 16  1  0
 16 17  2  0
 12 17  1  0
  2 18  1  0
 18 21  1  0
 18 19  2  0
M  RGP  2  20   1  21   2
V   20 *
V   21 *
M  END
>  <m_name>  (307)
(2S)-2-amino-3-(4-benzoylphenyl)propanoic acid

>  <symbol>  (307)
Bpa

>  <m_abbr>  (307)
Bpa

>  <m_type>  (307)
aa

>  <m_subtype>  (307)
non-natural

>  <m_Rgroups>  (307)
H,OH,None,None

>  <m_RgroupIdx>  (307)
19,20,None,None

>  <m_attachmentPointIdx>  (307)
0,17,None,None

>  <natAnalog>  (307)
X

>  <pdbName>  (307)
BBG

$$$$

     RDKit          2D

  9  8  0  0  0  0  0  0  0  0999 V2000
    0.5230    0.5230    0.0000 C   0  0  0  0  0  0  0  0  0  0  0  0
    1.2375    0.1105    0.0000 S   0  0  0  0  0  0  0  0  0  0  0  0
    1.2375   -0.7145    0.0000 C   0  0  0  0  0  0  0  0  0  0  0  0
    1.9520   -1.1270    0.0000 C   0  0  0  0  0  0  0  0  0  0  0  0
    1.9520   -1.9520    0.0000 N   0  0  0  0  0  0  0  0  0  0  0  0
    2.6664   -0.7145    0.0000 C   0  0  0  0  0  0  0  0  0  0  0  0
    3.3809   -1.1270    0.0000 O   0  0  0  0  0  0  0  0  0  0  0  0
    2.6664   -2.3645    0.0000 R#  0  0  0  0  0  0  0  0  0  0  0  0
    2.6664    0.1105    0.0000 R#  0  0  0  0  0  0  0  0  0  0  0  0
  1  2  1  0
  2  3  1  0
  4  3  1  1
  4  5  1  0
  5  8  1  0
  4  6  1  0
  6  9  1  0
  6  7  2  0
M  RGP  2   8   1   9   2
V    8 *
V    9 *
M  END
>  <m_name>  (308)
(2R)-2-amino-3-(methylsulfanyl)propanoic acid

>  <symbol>  (308)
Cys_Me

>  <m_abbr>  (308)
Cys_Me

>  <m_type>  (308)
aa

>  <m_subtype>  (308)
non-natural

>  <m_Rgroups>  (308)
H,OH,None,None

>  <m_RgroupIdx>  (308)
7,8,None,None

>  <m_attachmentPointIdx>  (308)
4,5,None,None

>  <natAnalog>  (308)
C

>  <pdbName>  (308)
CCJ

$$$$

     RDKit          2D

 19 20  0  0  0  0  0  0  0  0999 V2000
    0.7145   -0.4125    0.0000 N   0  0  0  0  0  0  0  0  0  0  0  0
    1.4289    0.0000    0.0000 C   0  0  0  0  0  0  0  0  0  0  0  0
    2.1434   -0.4125    0.0000 C   0  0  0  0  0  0  0  0  0  0  0  0
    2.1434   -1.2375    0.0000 C   0  0  0  0  0  0  0  0  0  0  0  0
    2.8579   -1.6500    0.0000 C   0  0  0  0  0  0  0  0  0  0  0  0
    2.8579   -2.4750    0.0000 C   0  0  0  0  0  0  0  0  0  0  0  0
    2.1434   -2.8875    0.0000 C   0  0  0  0  0  0  0  0  0  0  0  0
    1.4289   -2.4750    0.0000 C   0  0  0  0  0  0  0  0  0  0  0  0
    1.4289   -1.6500    0.0000 C   0  0  0  0  0  0  0  0  0  0  0  0
    2.8579    0.0000    0.0000 C   0  0  0  0  0  0  0  0  0  0  0  0
    2.8579    0.8250    0.0000 C   0  0  0  0  0  0  0  0  0  0  0  0
    3.5724    1.2375    0.0000 C   0  0  0  0  0  0  0  0  0  0  0  0
    4.2868    0.8250    0.0000 C   0  0  0  0  0  0  0  0  0  0  0  0
    4.2868    0.0000    0.0000 C   0  0  0  0  0  0  0  0  0  0  0  0
    3.5724   -0.4125    0.0000 C   0  0  0  0  0  0  0  0  0  0  0  0
    1.4289    0.8250    0.0000 C   0  0  0  0  0  0  0  0  0  0  0  0
    2.1434    1.2375    0.0000 O   0  0  0  0  0  0  0  0  0  0  0  0
    0.0000    0.0000    0.0000 R#  0  0  0  0  0  0  0  0  0  0  0  0
    0.7145    1.2375    0.0000 R#  0  0  0  0  0  0  0  0  0  0  0  0
 18  1  1  0
  2  1  1  6
  2  3  1  0
  3  4  1  0
  4  5  2  0
  5  6  1  0
  6  7  2  0
  7  8  1  0
  8  9  2  0
  4  9  1  0
  3 10  1  0
 10 11  2  0
 11 12  1  0
 12 13  2  0
 13 14  1  0
 14 15  2  0
 10 15  1  0
  2 16  1  0
 16 19  1  0
 16 17  2  0
M  RGP  2  18   1  19   2
V   18 *
V   19 *
M  END
>  <m_name>  (309)
(2S)-2-amino-3,3-diphenylpropanoic acid

>  <symbol>  (309)
Dip

>  <m_abbr>  (309)
Dip

>  <m_type>  (309)
aa

>  <m_subtype>  (309)
non-natural

>  <m_Rgroups>  (309)
H,OH,None,None

>  <m_RgroupIdx>  (309)
17,18,None,None

>  <m_attachmentPointIdx>  (309)
0,15,None,None

>  <natAnalog>  (309)
X

>  <pdbName>  (309)
D9E

$$$$

     RDKit          2D

 14 13  0  0  0  0  0  0  0  0999 V2000
   -0.1127   -3.1046    0.0000 N   0  0  0  0  0  0  0  0  0  0  0  0
    0.6974   -2.9487    0.0000 C   0  0  0  0  0  0  0  0  0  0  0  0
    0.9675   -2.1692    0.0000 N   0  0  0  0  0  0  0  0  0  0  0  0
    1.2375   -3.5724    0.0000 N   0  0  0  0  0  0  0  0  0  0  0  0
    2.0476   -3.4164    0.0000 C   0  0  0  0  0  0  0  0  0  0  0  0
    2.5877   -4.0401    0.0000 C   0  0  0  0  0  0  0  0  0  0  0  0
    3.3979   -3.8842    0.0000 C   0  0  0  0  0  0  0  0  0  0  0  0
    3.9379   -4.5078    0.0000 C   0  0  0  0  0  0  0  0  0  0  0  0
    4.7481   -4.3519    0.0000 C   0  0  0  0  0  0  0  0  0  0  0  0
    5.2882   -4.9755    0.0000 N   0  0  0  0  0  0  0  0  0  0  0  0
    5.0181   -3.5724    0.0000 C   0  0  0  0  0  0  0  0  0  0  0  0
    5.8283   -3.4164    0.0000 O   0  0  0  0  0  0  0  0  0  0  0  0
    6.0983   -4.8196    0.0000 R#  0  0  0  0  0  0  0  0  0  0  0  0
    4.4780   -2.9487    0.0000 R#  0  0  0  0  0  0  0  0  0  0  0  0
  1  2  1  0
  2  3  1  0
  2  4  1  0
  4  5  1  0
  5  6  1  0
  6  7  1  0
  7  8  1  0
  9  8  1  1
  9 10  1  0
 10 13  1  0
  9 11  1  0
 11 14  1  0
 11 12  2  0
M  RGP  2  13   1  14   2
V   13 *
V   14 *
M  END
>  <m_name>  (310)
(2S)-2-amino-6-[(diaminomethyl)amino]hexanoic acid

>  <symbol>  (310)
hArg

>  <m_abbr>  (310)
hArg

>  <m_type>  (310)
aa

>  <m_subtype>  (310)
non-natural

>  <m_Rgroups>  (310)
H,OH,None,None

>  <m_RgroupIdx>  (310)
12,13,None,None

>  <m_attachmentPointIdx>  (310)
9,10,None,None

>  <natAnalog>  (310)
R

>  <pdbName>  (310)
HA4

$$$$

     RDKit          2D

 19 20  0  0  0  0  0  0  0  0999 V2000
    1.3222    0.7634    0.0000 N   0  0  0  0  0  0  0  0  0  0  0  0
    1.3222   -0.0616    0.0000 C   0  0  0  0  0  0  0  0  0  0  0  0
    2.0367   -0.4741    0.0000 C   0  0  0  0  0  0  0  0  0  0  0  0
    2.0367   -1.2991    0.0000 C   0  0  0  0  0  0  0  0  0  0  0  0
    2.7041   -1.7840    0.0000 C   0  0  0  0  0  0  0  0  0  0  0  0
    2.4492   -2.5687    0.0000 N   0  0  0  0  0  0  0  0  0  0  0  0
    2.9341   -3.2361    0.0000 C   0  0  0  0  0  0  0  0  0  0  0  0
    2.5986   -3.9898    0.0000 C   0  0  0  0  0  0  0  0  0  0  0  0
    3.0835   -4.6572    0.0000 C   0  0  0  0  0  0  0  0  0  0  0  0
    2.7479   -5.4109    0.0000 C   0  0  0  0  0  0  0  0  0  0  0  0
    1.9275   -5.4971    0.0000 C   0  0  0  0  0  0  0  0  0  0  0  0
    1.4425   -4.8297    0.0000 C   0  0  0  0  0  0  0  0  0  0  0  0
    1.7781   -4.0760    0.0000 C   0  0  0  0  0  0  0  0  0  0  0  0
    1.6242   -2.5687    0.0000 C   0  0  0  0  0  0  0  0  0  0  0  0
    1.3693   -1.7840    0.0000 N   0  0  0  0  0  0  0  0  0  0  0  0
    0.6078   -0.4741    0.0000 C   0  0  0  0  0  0  0  0  0  0  0  0
   -0.1067   -0.0616    0.0000 O   0  0  0  0  0  0  0  0  0  0  0  0
    0.6078    1.1759    0.0000 R#  0  0  0  0  0  0  0  0  0  0  0  0
    0.6078   -1.2991    0.0000 R#  0  0  0  0  0  0  0  0  0  0  0  0
 18  1  1  0
  2  1  1  0
  2  3  1  1
  3  4  1  0
  4  5  2  0
  5  6  1  0
  6  7  1  0
  7  8  1  0
  8  9  2  0
  9 10  1  0
 10 11  2  0
 11 12  1  0
 12 13  2  0
  8 13  1  0
  6 14  1  0
 14 15  2  0
  4 15  1  0
  2 16  1  0
 16 19  1  0
 16 17  2  0
M  RGP  2  18   1  19   2
V   18 *
V   19 *
M  END
>  <m_name>  (311)
(2S)-2-amino-3-(1-benzyl-1H-imidazol-4-yl)propanoic acid

>  <symbol>  (311)
His_1Bn

>  <m_abbr>  (311)
His_1Bn

>  <m_type>  (311)
aa

>  <m_subtype>  (311)
non-natural

>  <m_Rgroups>  (311)
H,OH,None,None

>  <m_RgroupIdx>  (311)
17,18,None,None

>  <m_attachmentPointIdx>  (311)
0,15,None,None

>  <natAnalog>  (311)
H

>  <pdbName>  (311)
HIJ

$$$$

     RDKit          2D

 13 13  0  0  0  0  0  0  0  0999 V2000
    0.5678    1.9393    0.0000 C   0  0  0  0  0  0  0  0  0  0  0  0
    0.5678    1.1143    0.0000 N   0  0  0  0  0  0  0  0  0  0  0  0
    1.2352    0.6294    0.0000 C   0  0  0  0  0  0  0  0  0  0  0  0
    0.9803   -0.1553    0.0000 N   0  0  0  0  0  0  0  0  0  0  0  0
    0.1553   -0.1553    0.0000 C   0  0  0  0  0  0  0  0  0  0  0  0
   -0.0997    0.6294    0.0000 C   0  0  0  0  0  0  0  0  0  0  0  0
   -0.8843    0.8843    0.0000 C   0  0  0  0  0  0  0  0  0  0  0  0
   -1.4974    0.3323    0.0000 C   0  0  0  0  0  0  0  0  0  0  0  0
   -2.2820    0.5872    0.0000 N   0  0  0  0  0  0  0  0  0  0  0  0
   -1.3259   -0.4747    0.0000 C   0  0  0  0  0  0  0  0  0  0  0  0
   -0.5412   -0.7296    0.0000 O   0  0  0  0  0  0  0  0  0  0  0  0
   -2.8951    0.0352    0.0000 R#  0  0  0  0  0  0  0  0  0  0  0  0
   -1.9390   -1.0267    0.0000 R#  0  0  0  0  0  0  0  0  0  0  0  0
  1  2  1  0
  2  3  1  0
  3  4  2  0
  4  5  1  0
  5  6  2  0
  2  6  1  0
  6  7  1  0
  8  7  1  1
  8  9  1  0
  9 12  1  0
  8 10  1  0
 10 13  1  0
 10 11  2  0
M  RGP  2  12   1  13   2
V   12 *
V   13 *
M  END
>  <m_name>  (312)
(2S)-2-amino-3-(1-methyl-1H-imidazol-5-yl)propanoic acid

>  <symbol>  (312)
His_3Me

>  <m_abbr>  (312)
His_3Me

>  <m_type>  (312)
aa

>  <m_subtype>  (312)
non-natural

>  <m_Rgroups>  (312)
H,OH,None,None

>  <m_RgroupIdx>  (312)
11,12,None,None

>  <m_attachmentPointIdx>  (312)
8,9,None,None

>  <natAnalog>  (312)
H

>  <pdbName>  (312)
HIL

$$$$

     RDKit          2D

 12 11  0  0  0  0  0  0  0  0999 V2000
    0.0000   -1.4289    0.0000 N   0  0  0  0  0  0  0  0  0  0  0  0
    0.8250   -1.4289    0.0000 C   0  0  0  0  0  0  0  0  0  0  0  0
    1.2375   -2.1434    0.0000 C   0  0  0  0  0  0  0  0  0  0  0  0
    0.8250   -2.8579    0.0000 O   0  0  0  0  0  0  0  0  0  0  0  0
    2.0625   -2.1434    0.0000 C   0  0  0  0  0  0  0  0  0  0  0  0
    2.4750   -2.8579    0.0000 C   0  0  0  0  0  0  0  0  0  0  0  0
    3.3000   -2.8579    0.0000 C   0  0  0  0  0  0  0  0  0  0  0  0
    3.7125   -3.5724    0.0000 N   0  0  0  0  0  0  0  0  0  0  0  0
    3.7125   -2.1434    0.0000 C   0  0  0  0  0  0  0  0  0  0  0  0
    4.5375   -2.1434    0.0000 O   0  0  0  0  0  0  0  0  0  0  0  0
    4.5375   -3.5724    0.0000 R#  0  0  0  0  0  0  0  0  0  0  0  0
    3.3000   -1.4289    0.0000 R#  0  0  0  0  0  0  0  0  0  0  0  0
  1  2  1  0
  2  3  1  0
  3  4  1  0
  3  5  1  0
  5  6  1  0
  7  6  1  1
  7  8  1  0
  8 11  1  0
  7  9  1  0
  9 12  1  0
  9 10  2  0
M  RGP  2  11   1  12   2
V   11 *
V   12 *
M  END
>  <m_name>  (313)
(2S)-2,6-diamino-5-hydroxyhexanoic acid

>  <symbol>  (313)
Hyl_5xi

>  <m_abbr>  (313)
Hyl_5xi

>  <m_type>  (313)
aa

>  <m_subtype>  (313)
non-natural

>  <m_Rgroups>  (313)
H,OH,None,None

>  <m_RgroupIdx>  (313)
10,11,None,None

>  <m_attachmentPointIdx>  (313)
7,8,None,None

>  <natAnalog>  (313)
K

>  <pdbName>  (313)
HYL

$$$$

     RDKit          2D

 19 20  0  0  0  0  0  0  0  0999 V2000
    0.0000    0.8250    0.0000 N   0  0  0  0  0  0  0  0  0  0  0  0
    0.0000    0.0000    0.0000 C   0  0  0  0  0  0  0  0  0  0  0  0
    0.7145   -0.4125    0.0000 C   0  0  0  0  0  0  0  0  0  0  0  0
    0.7145   -1.2375    0.0000 C   0  0  0  0  0  0  0  0  0  0  0  0
    1.4289   -1.6500    0.0000 C   0  0  0  0  0  0  0  0  0  0  0  0
    1.4289   -2.4750    0.0000 C   0  0  0  0  0  0  0  0  0  0  0  0
    0.7145   -2.8875    0.0000 C   0  0  0  0  0  0  0  0  0  0  0  0
    0.0000   -2.4750    0.0000 C   0  0  0  0  0  0  0  0  0  0  0  0
    0.0000   -1.6500    0.0000 C   0  0  0  0  0  0  0  0  0  0  0  0
    0.7145   -3.7125    0.0000 C   0  0  0  0  0  0  0  0  0  0  0  0
    1.4289   -4.1250    0.0000 C   0  0  0  0  0  0  0  0  0  0  0  0
    1.4289   -4.9500    0.0000 C   0  0  0  0  0  0  0  0  0  0  0  0
    0.7145   -5.3625    0.0000 C   0  0  0  0  0  0  0  0  0  0  0  0
    0.0000   -4.9500    0.0000 C   0  0  0  0  0  0  0  0  0  0  0  0
    0.0000   -4.1250    0.0000 C   0  0  0  0  0  0  0  0  0  0  0  0
   -0.7145   -0.4125    0.0000 C   0  0  0  0  0  0  0  0  0  0  0  0
   -1.4289    0.0000    0.0000 O   0  0  0  0  0  0  0  0  0  0  0  0
   -0.7145    1.2375    0.0000 R#  0  0  0  0  0  0  0  0  0  0  0  0
   -0.7145   -1.2375    0.0000 R#  0  0  0  0  0  0  0  0  0  0  0  0
 18  1  1  0
  2  1  1  0
  2  3  1  1
  3  4  1  0
  4  5  2  0
  5  6  1  0
  6  7  2  0
  7  8  1  0
  8  9  2  0
  4  9  1  0
  7 10  1  0
 10 11  2  0
 11 12  1  0
 12 13  2  0
 13 14  1  0
 14 15  2  0
 10 15  1  0
  2 16  1  0
 16 19  1  0
 16 17  2  0
M  RGP  2  18   1  19   2
V   18 *
V   19 *
M  END
>  <m_name>  (314)
(2S)-2-amino-3-{[1,1'-biphenyl]-4-yl}propanoic acid

>  <symbol>  (314)
Bip

>  <m_abbr>  (314)
Bip

>  <m_type>  (314)
aa

>  <m_subtype>  (314)
non-natural

>  <m_Rgroups>  (314)
H,OH,None,None

>  <m_RgroupIdx>  (314)
17,18,None,None

>  <m_attachmentPointIdx>  (314)
0,15,None,None

>  <natAnalog>  (314)
X

>  <pdbName>  (314)
BI0

$$$$

     RDKit          2D

  8  7  0  0  0  0  0  0  0  0999 V2000
    2.0625    0.7145    0.0000 C   0  0  0  0  0  0  0  0  0  0  0  0
    1.2375    0.7145    0.0000 C   0  0  0  0  0  0  0  0  0  0  0  0
    0.8250    0.0000    0.0000 C   0  0  0  0  0  0  0  0  0  0  0  0
    0.0000    0.0000    0.0000 N   0  0  0  0  0  0  0  0  0  0  0  0
    1.2375   -0.7145    0.0000 C   0  0  0  0  0  0  0  0  0  0  0  0
    2.0625   -0.7145    0.0000 O   0  0  0  0  0  0  0  0  0  0  0  0
   -0.4125   -0.7145    0.0000 R#  0  0  0  0  0  0  0  0  0  0  0  0
    0.8250   -1.4289    0.0000 R#  0  0  0  0  0  0  0  0  0  0  0  0
  1  2  1  0
  2  3  1  0
  3  4  2  3
  4  7  1  0
  3  5  1  0
  5  8  1  0
  5  6  2  0
M  RGP  2   7   1   8   2
V    7 *
V    8 *
M  END
>  <m_name>  (315)
2-aminobut-2-enoic acid

>  <symbol>  (315)
Abu_23dehydro

>  <m_abbr>  (315)
Abu_23dehydro

>  <m_type>  (315)
aa

>  <m_subtype>  (315)
non-natural

>  <m_Rgroups>  (315)
H,OH,None,None

>  <m_RgroupIdx>  (315)
6,7,None,None

>  <m_attachmentPointIdx>  (315)
3,4,None,None

>  <natAnalog>  (315)
X

>  <pdbName>  (315)
AJS

$$$$

     RDKit          2D

 19 20  0  0  0  0  0  0  0  0999 V2000
    0.7145   -0.4125    0.0000 N   0  0  0  0  0  0  0  0  0  0  0  0
    1.4289    0.0000    0.0000 C   0  0  0  0  0  0  0  0  0  0  0  0
    2.1434   -0.4125    0.0000 C   0  0  0  0  0  0  0  0  0  0  0  0
    2.1434   -1.2375    0.0000 C   0  0  0  0  0  0  0  0  0  0  0  0
    2.8579   -1.6500    0.0000 C   0  0  0  0  0  0  0  0  0  0  0  0
    2.8579   -2.4750    0.0000 C   0  0  0  0  0  0  0  0  0  0  0  0
    2.1434   -2.8875    0.0000 C   0  0  0  0  0  0  0  0  0  0  0  0
    1.4289   -2.4750    0.0000 C   0  0  0  0  0  0  0  0  0  0  0  0
    1.4289   -1.6500    0.0000 C   0  0  0  0  0  0  0  0  0  0  0  0
    2.8579    0.0000    0.0000 C   0  0  0  0  0  0  0  0  0  0  0  0
    2.8579    0.8250    0.0000 C   0  0  0  0  0  0  0  0  0  0  0  0
    3.5724    1.2375    0.0000 C   0  0  0  0  0  0  0  0  0  0  0  0
    4.2868    0.8250    0.0000 C   0  0  0  0  0  0  0  0  0  0  0  0
    4.2868    0.0000    0.0000 C   0  0  0  0  0  0  0  0  0  0  0  0
    3.5724   -0.4125    0.0000 C   0  0  0  0  0  0  0  0  0  0  0  0
    1.4289    0.8250    0.0000 C   0  0  0  0  0  0  0  0  0  0  0  0
    2.1434    1.2375    0.0000 O   0  0  0  0  0  0  0  0  0  0  0  0
    0.0000    0.0000    0.0000 R#  0  0  0  0  0  0  0  0  0  0  0  0
    0.7145    1.2375    0.0000 R#  0  0  0  0  0  0  0  0  0  0  0  0
 18  1  1  0
  2  1  1  1
  2  3  1  0
  3  4  1  0
  4  5  2  0
  5  6  1  0
  6  7  2  0
  7  8  1  0
  8  9  2  0
  4  9  1  0
  3 10  1  0
 10 11  2  0
 11 12  1  0
 12 13  2  0
 13 14  1  0
 14 15  2  0
 10 15  1  0
  2 16  1  0
 16 19  1  0
 16 17  2  0
M  RGP  2  18   1  19   2
V   18 *
V   19 *
M  END
>  <m_name>  (316)
(2R)-2-amino-3,3-diphenylpropanoic acid

>  <symbol>  (316)
D_Dip

>  <m_abbr>  (316)
D_Dip

>  <m_type>  (316)
aa

>  <m_subtype>  (316)
non-natural

>  <m_Rgroups>  (316)
H,OH,None,None

>  <m_RgroupIdx>  (316)
17,18,None,None

>  <m_attachmentPointIdx>  (316)
0,15,None,None

>  <natAnalog>  (316)
X

>  <pdbName>  (316)
D9I

$$$$

     RDKit          2D

  7  6  0  0  0  0  0  0  0  0999 V2000
    1.2375   -0.7145    0.0000 C   0  0  0  0  0  0  0  0  0  0  0  0
    0.8250    0.0000    0.0000 C   0  0  0  0  0  0  0  0  0  0  0  0
    0.0000    0.0000    0.0000 N   0  0  0  0  0  0  0  0  0  0  0  0
    1.2375    0.7145    0.0000 C   0  0  0  0  0  0  0  0  0  0  0  0
    2.0625    0.7145    0.0000 O   0  0  0  0  0  0  0  0  0  0  0  0
   -0.4125   -0.7145    0.0000 R#  0  0  0  0  0  0  0  0  0  0  0  0
    0.8250    1.4289    0.0000 R#  0  0  0  0  0  0  0  0  0  0  0  0
  1  2  1  0
  2  3  2  3
  3  6  1  0
  2  4  1  0
  4  7  1  0
  4  5  2  0
M  RGP  2   6   1   7   2
V    6 *
V    7 *
M  END
>  <m_name>  (317)
2-aminoprop-2-enoic acid

>  <symbol>  (317)
Dha

>  <m_abbr>  (317)
Dha

>  <m_type>  (317)
aa

>  <m_subtype>  (317)
non-natural

>  <m_Rgroups>  (317)
H,OH,None,None

>  <m_RgroupIdx>  (317)
5,6,None,None

>  <m_attachmentPointIdx>  (317)
2,3,None,None

>  <natAnalog>  (317)
A

>  <pdbName>  (317)
D9J

$$$$

     RDKit          2D

 18 17  0  0  0  0  0  0  0  0999 V2000
   -1.4629   -2.6369    0.0000 C   0  0  0  0  0  0  0  0  0  0  0  0
   -0.6528   -2.4810    0.0000 C   0  0  0  0  0  0  0  0  0  0  0  0
   -0.1127   -3.1046    0.0000 N   0  0  0  0  0  0  0  0  0  0  0  0
    0.6974   -2.9487    0.0000 C   0  0  0  0  0  0  0  0  0  0  0  0
    1.2375   -3.5724    0.0000 N   0  0  0  0  0  0  0  0  0  0  0  0
    2.0476   -3.4164    0.0000 C   0  0  0  0  0  0  0  0  0  0  0  0
    2.5877   -4.0401    0.0000 C   0  0  0  0  0  0  0  0  0  0  0  0
    3.3979   -3.8842    0.0000 C   0  0  0  0  0  0  0  0  0  0  0  0
    3.9379   -4.5078    0.0000 C   0  0  0  0  0  0  0  0  0  0  0  0
    4.7481   -4.3519    0.0000 C   0  0  0  0  0  0  0  0  0  0  0  0
    5.2882   -4.9755    0.0000 N   0  0  0  0  0  0  0  0  0  0  0  0
    5.0181   -3.5724    0.0000 C   0  0  0  0  0  0  0  0  0  0  0  0
    5.8283   -3.4164    0.0000 O   0  0  0  0  0  0  0  0  0  0  0  0
    0.9675   -2.1692    0.0000 N   0  0  0  0  0  0  0  0  0  0  0  0
    1.7776   -2.0133    0.0000 C   0  0  0  0  0  0  0  0  0  0  0  0
    2.0476   -1.2337    0.0000 C   0  0  0  0  0  0  0  0  0  0  0  0
    6.0983   -4.8196    0.0000 R#  0  0  0  0  0  0  0  0  0  0  0  0
    4.4780   -2.9487    0.0000 R#  0  0  0  0  0  0  0  0  0  0  0  0
  1  2  1  0
  3  2  1  0
  3  4  1  0
  4  5  1  0
  5  6  1  0
  6  7  1  0
  7  8  1  0
  8  9  1  0
 10  9  1  6
 10 11  1  0
 11 17  1  0
 10 12  1  0
 12 18  1  0
 12 13  2  0
  4 14  2  3
 14 15  1  0
 15 16  1  0
M  RGP  2  17   1  18   2
V   17 *
V   18 *
M  END
>  <m_name>  (318)
(2R)-2-amino-6-{[bis(ethylamino)methylidene]amino}hexanoic acid

>  <symbol>  (318)
D_hArg_Et2

>  <m_abbr>  (318)
D_hArg_Et2

>  <m_type>  (318)
aa

>  <m_subtype>  (318)
non-natural

>  <m_Rgroups>  (318)
H,OH,None,None

>  <m_RgroupIdx>  (318)
16,17,None,None

>  <m_attachmentPointIdx>  (318)
10,11,None,None

>  <natAnalog>  (318)
R

>  <pdbName>  (318)
D9R

$$$$

     RDKit          2D

 11 10  0  0  0  0  0  0  0  0999 V2000
    0.8250   -1.4289    0.0000 C   0  0  0  0  0  0  0  0  0  0  0  0
    1.2375   -2.1434    0.0000 S   0  0  0  0  0  0  0  0  0  0  0  0
    0.8250   -2.8579    0.0000 O   0  0  0  0  0  0  0  0  0  0  0  0
    2.0625   -2.1434    0.0000 C   0  0  0  0  0  0  0  0  0  0  0  0
    2.4750   -2.8579    0.0000 C   0  0  0  0  0  0  0  0  0  0  0  0
    3.3000   -2.8579    0.0000 C   0  0  0  0  0  0  0  0  0  0  0  0
    3.7125   -3.5724    0.0000 N   0  0  0  0  0  0  0  0  0  0  0  0
    3.7125   -2.1434    0.0000 C   0  0  0  0  0  0  0  0  0  0  0  0
    4.5375   -2.1434    0.0000 O   0  0  0  0  0  0  0  0  0  0  0  0
    4.5375   -3.5724    0.0000 R#  0  0  0  0  0  0  0  0  0  0  0  0
    3.3000   -1.4289    0.0000 R#  0  0  0  0  0  0  0  0  0  0  0  0
  2  1  1  1
  3  2  1  0
  2  4  1  0
  4  5  1  0
  6  5  1  6
  6  7  1  0
  6  8  1  0
  7 10  1  0
  8 11  1  0
  8  9  2  0
M  CHG  2   2   1   3  -1
M  RGP  2  10   1  11   2
V   10 *
V   11 *
M  END
>  <m_name>  (319)
(2R)-2-amino-4-[(S)-methanesulfinyl]butanoic acid

>  <symbol>  (319)
D_Met_S_O

>  <m_abbr>  (319)
D_Met_S_O

>  <m_type>  (319)
aa

>  <m_subtype>  (319)
non-natural

>  <m_Rgroups>  (319)
H,OH,None,None

>  <m_RgroupIdx>  (319)
9,10,None,None

>  <m_attachmentPointIdx>  (319)
6,7,None,None

>  <natAnalog>  (319)
M

>  <pdbName>  (319)
D9X

$$$$

     RDKit          2D

 19 20  0  0  0  0  0  0  0  0999 V2000
    1.3222    0.7634    0.0000 N   0  0  0  0  0  0  0  0  0  0  0  0
    1.3222   -0.0616    0.0000 C   0  0  0  0  0  0  0  0  0  0  0  0
    2.0367   -0.4741    0.0000 C   0  0  0  0  0  0  0  0  0  0  0  0
    2.0367   -1.2991    0.0000 C   0  0  0  0  0  0  0  0  0  0  0  0
    2.7041   -1.7840    0.0000 C   0  0  0  0  0  0  0  0  0  0  0  0
    2.4492   -2.5687    0.0000 N   0  0  0  0  0  0  0  0  0  0  0  0
    2.9341   -3.2361    0.0000 C   0  0  0  0  0  0  0  0  0  0  0  0
    2.5986   -3.9898    0.0000 C   0  0  0  0  0  0  0  0  0  0  0  0
    3.0835   -4.6572    0.0000 C   0  0  0  0  0  0  0  0  0  0  0  0
    2.7479   -5.4109    0.0000 C   0  0  0  0  0  0  0  0  0  0  0  0
    1.9275   -5.4971    0.0000 C   0  0  0  0  0  0  0  0  0  0  0  0
    1.4425   -4.8297    0.0000 C   0  0  0  0  0  0  0  0  0  0  0  0
    1.7781   -4.0760    0.0000 C   0  0  0  0  0  0  0  0  0  0  0  0
    1.6242   -2.5687    0.0000 C   0  0  0  0  0  0  0  0  0  0  0  0
    1.3693   -1.7840    0.0000 N   0  0  0  0  0  0  0  0  0  0  0  0
    0.6078   -0.4741    0.0000 C   0  0  0  0  0  0  0  0  0  0  0  0
   -0.1067   -0.0616    0.0000 O   0  0  0  0  0  0  0  0  0  0  0  0
    0.6078    1.1759    0.0000 R#  0  0  0  0  0  0  0  0  0  0  0  0
    0.6078   -1.2991    0.0000 R#  0  0  0  0  0  0  0  0  0  0  0  0
 18  1  1  0
  2  1  1  0
  2  3  1  6
  3  4  1  0
  4  5  2  0
  5  6  1  0
  6  7  1  0
  7  8  1  0
  8  9  2  0
  9 10  1  0
 10 11  2  0
 11 12  1  0
 12 13  2  0
  8 13  1  0
  6 14  1  0
 14 15  2  0
  4 15  1  0
  2 16  1  0
 16 19  1  0
 16 17  2  0
M  RGP  2  18   1  19   2
V   18 *
V   19 *
M  END
>  <m_name>  (320)
(2R)-2-amino-3-(1-benzyl-1H-imidazol-4-yl)propanoic acid

>  <symbol>  (320)
D_His_1Bn

>  <m_abbr>  (320)
D_His_1Bn

>  <m_type>  (320)
aa

>  <m_subtype>  (320)
non-natural

>  <m_Rgroups>  (320)
H,OH,None,None

>  <m_RgroupIdx>  (320)
17,18,None,None

>  <m_attachmentPointIdx>  (320)
0,15,None,None

>  <natAnalog>  (320)
H

>  <pdbName>  (320)
AJT

$$$$

     RDKit          2D

 13 13  0  0  0  0  0  0  0  0999 V2000
    0.7145    2.0625    0.0000 O   0  0  0  0  0  0  0  0  0  0  0  0
    0.7145    1.2375    0.0000 C   0  0  0  0  0  0  0  0  0  0  0  0
    1.4289    0.8250    0.0000 C   0  0  0  0  0  0  0  0  0  0  0  0
    1.4289    0.0000    0.0000 C   0  0  0  0  0  0  0  0  0  0  0  0
    0.7145   -0.4125    0.0000 C   0  0  0  0  0  0  0  0  0  0  0  0
    0.0000    0.0000    0.0000 C   0  0  0  0  0  0  0  0  0  0  0  0
    0.0000    0.8250    0.0000 C   0  0  0  0  0  0  0  0  0  0  0  0
    0.7145   -1.2375    0.0000 C   0  0  0  0  0  0  0  0  0  0  0  0
    0.0000   -1.6500    0.0000 N   0  0  0  0  0  0  0  0  0  0  0  0
    1.4289   -1.6500    0.0000 C   0  0  0  0  0  0  0  0  0  0  0  0
    2.1434   -1.2375    0.0000 O   0  0  0  0  0  0  0  0  0  0  0  0
    0.0000   -2.4750    0.0000 R#  0  0  0  0  0  0  0  0  0  0  0  0
    1.4289   -2.4750    0.0000 R#  0  0  0  0  0  0  0  0  0  0  0  0
  1  2  1  0
  2  3  2  0
  3  4  1  0
  4  5  2  0
  5  6  1  0
  6  7  2  0
  2  7  1  0
  8  5  1  0
  8  9  1  6
  9 12  1  0
  8 10  1  0
 10 13  1  0
 10 11  2  0
M  RGP  2  12   1  13   2
V   12 *
V   13 *
M  END
>  <m_name>  (321)
(2R)-2-amino-2-(4-hydroxyphenyl)acetic acid

>  <symbol>  (321)
D_nTyr

>  <m_abbr>  (321)
D_nTyr

>  <m_type>  (321)
aa

>  <m_subtype>  (321)
non-natural

>  <m_Rgroups>  (321)
H,OH,None,None

>  <m_RgroupIdx>  (321)
11,12,None,None

>  <m_attachmentPointIdx>  (321)
8,9,None,None

>  <natAnalog>  (321)
Y

>  <pdbName>  (321)
AJW

$$$$

     RDKit          2D

 17 17  0  0  0  0  0  0  0  0999 V2000
    0.0000    3.3000    0.0000 N   0  0  0  0  0  0  0  0  0  0  0  0
    0.0000    2.4750    0.0000 C   0  0  0  0  0  0  0  0  0  0  0  0
   -0.7145    2.0625    0.0000 O   0  0  0  0  0  0  0  0  0  0  0  0
    0.7145    2.0625    0.0000 N   0  0  0  0  0  0  0  0  0  0  0  0
    0.7145    1.2375    0.0000 C   0  0  0  0  0  0  0  0  0  0  0  0
    1.4289    0.8250    0.0000 C   0  0  0  0  0  0  0  0  0  0  0  0
    1.4289    0.0000    0.0000 C   0  0  0  0  0  0  0  0  0  0  0  0
    0.7145   -0.4125    0.0000 C   0  0  0  0  0  0  0  0  0  0  0  0
    0.7145   -1.2375    0.0000 C   0  0  0  0  0  0  0  0  0  0  0  0
    1.4289   -1.6500    0.0000 C   0  0  0  0  0  0  0  0  0  0  0  0
    1.4289   -2.4750    0.0000 N   0  0  0  0  0  0  0  0  0  0  0  0
    2.1434   -1.2375    0.0000 C   0  0  0  0  0  0  0  0  0  0  0  0
    2.1434   -0.4125    0.0000 O   0  0  0  0  0  0  0  0  0  0  0  0
    0.0000    0.0000    0.0000 C   0  0  0  0  0  0  0  0  0  0  0  0
    0.0000    0.8250    0.0000 C   0  0  0  0  0  0  0  0  0  0  0  0
    2.1434   -2.8875    0.0000 R#  0  0  0  0  0  0  0  0  0  0  0  0
    2.8579   -1.6500    0.0000 R#  0  0  0  0  0  0  0  0  0  0  0  0
  1  2  1  0
  2  3  2  0
  2  4  1  0
  4  5  1  0
  5  6  2  0
  6  7  1  0
  7  8  2  0
  8  9  1  0
 10  9  1  6
 10 11  1  0
 11 16  1  0
 10 12  1  0
 12 17  1  0
 12 13  2  0
  8 14  1  0
 14 15  2  0
  5 15  1  0
M  RGP  2  16   1  17   2
V   16 *
V   17 *
M  END
>  <m_name>  (322)
(2R)-2-amino-3-[4-(carbamoylamino)phenyl]propanoic acid

>  <symbol>  (322)
D_Phe_4ureido

>  <m_abbr>  (322)
D_Phe_4ureido

>  <m_type>  (322)
aa

>  <m_subtype>  (322)
non-natural

>  <m_Rgroups>  (322)
H,OH,None,None

>  <m_RgroupIdx>  (322)
15,16,None,None

>  <m_attachmentPointIdx>  (322)
10,11,None,None

>  <natAnalog>  (322)
F

>  <pdbName>  (322)
AJ0

$$$$

  Marvin  06150820452D

 12 12  0  0  0  0            999 V2000
    1.4617    2.2807    0.0000 O   0  0  0  0  0  0  0  0  0  0  0  0
    0.7479    1.8672    0.0000 C   0  0  1  0  0  0  0  0  0  0  0  0
    2.1768    1.8692    0.0000 C   0  0  2  0  0  0  0  0  0  0  0  0
    0.9625    1.0707    0.0000 C   0  0  2  0  0  0  0  0  0  0  0  0
    1.9644    1.0721    0.0000 C   0  0  1  0  0  0  0  0  0  0  0  0
    0.9637    0.2457    0.0000 O   0  0  0  0  0  0  0  0  0  0  0  0
    1.9656    0.2471    0.0000 O   0  0  0  0  0  0  0  0  0  0  0  0
    0.5994    2.7216    0.0000 C   0  0  0  0  0  0  0  0  0  0  0  0
    2.1756    2.9004    0.0000 R#  0  0  0  0  0  0  0  0  0  0  0  0
    0.1279    3.0752    0.0000 O   0  0  0  0  0  0  0  0  0  0  0  0
   -0.6971    3.2298    0.0000 R#  0  0  0  0  0  0  0  0  0  0  0  0
    1.6650   -0.3083    0.0000 R#  0  0  0  0  0  0  0  0  0  0  0  0
  1  2  1  0  0  0  0
  1  3  1  0  0  0  0
  2  4  1  0  0  0  0
  2  8  1  1  0  0  0
  3  5  1  0  0  0  0
  3  9  1  1  0  0  0
  4  5  1  0  0  0  0
  4  6  1  6  0  0  0
  5  7  1  6  0  0  0
  6 12  1  0  0  0  0
  8 10  1  0  0  0  0
 10 11  1  0  0  0  0
M  RGP  3   9   3  11   1  12   2
M  END

>  <symbol>
r

>  <m_abbr>
r

>  <m_type>
rna

>  <m_subtype>
natural

>  <m_RgroupIdx>
10,11,8

>  <m_Rgroups>
H,H,OH

$$$$

  Marvin  06150820472D

  5  4  0  0  0  0            999 V2000
    0.1179    0.7366    0.0000 P   0  0  0  0  0  0  0  0  0  0  0  0
   -0.7071    0.7366    0.0000 R#  0  0  0  0  0  0  0  0  0  0  0  0
    0.1179    1.5616    0.0000 O   0  0  0  0  0  0  0  0  0  0  0  0
    0.9429    0.7366    0.0000 R#  0  0  0  0  0  0  0  0  0  0  0  0
    0.1179   -0.0884    0.0000 O   0  0  0  0  0  0  0  0  0  0  0  0
  1  2  1  0  0  0  0
  1  3  2  0  0  0  0
  1  4  1  0  0  0  0
  1  5  1  0  0  0  0
M  RGP  2   2   1   4   2
M  END

>  <symbol>
p

>  <m_abbr>
p

>  <m_type>
rna

>  <m_subtype>
natural

>  <m_RgroupIdx>
1,3

>  <m_Rgroups>
OH,OH

$$$$

  Marvin  06150820502D

 12 13  0  0  0  0            999 V2000
   -1.7509   -3.8489    0.0000 C   0  0  0  0  0  0  0  0  0  0  0  0
   -1.0364   -4.2614    0.0000 C   0  0  0  0  0  0  0  0  0  0  0  0
   -1.0364   -5.0864    0.0000 C   0  0  0  0  0  0  0  0  0  0  0  0
   -1.7509   -5.4989    0.0000 N   0  0  0  0  0  0  0  0  0  0  0  0
   -2.4654   -5.0864    0.0000 C   0  0  0  0  0  0  0  0  0  0  0  0
   -2.4654   -4.2614    0.0000 N   0  0  0  0  0  0  0  0  0  0  0  0
   -0.3220   -5.4989    0.0000 N   0  0  0  0  0  0  0  0  0  0  0  0
    0.3925   -5.0864    0.0000 C   0  0  0  0  0  0  0  0  0  0  0  0
    0.3925   -4.2614    0.0000 N   0  0  0  0  0  0  0  0  0  0  0  0
   -1.7509   -3.0239    0.0000 O   0  0  0  0  0  0  0  0  0  0  0  0
   -3.1798   -5.4989    0.0000 N   0  0  0  0  0  0  0  0  0  0  0  0
   -0.3220   -6.3239    0.0000 R#  0  0  0  0  0  0  0  0  0  0  0  0
  1 10  2  0  0  0  0
  1  6  1  0  0  0  0
  1  2  1  0  0  0  0
  9  2  1  0  0  0  0
  2  3  2  0  0  0  0
  7  3  1  0  0  0  0
  3  4  1  0  0  0  0
  4  5  2  0  0  0  0
  5  6  1  0  0  0  0
  5 11  1  0  0  0  0
  7  8  1  0  0  0  0
  7 12  1  0  0  0  0
  8  9  2  0  0  0  0
M  RGP  1  12   1
M  END

>  <symbol>
G

>  <m_abbr>
G

>  <m_type>
rna

>  <m_subtype>
natural

>  <m_RgroupIdx>
11

>  <m_Rgroups>
H

$$$$

  Marvin  06150816552D

 11 12  0  0  0  0            999 V2000
   -4.0674   -0.7795    0.0000 C   0  0  0  0  0  0  0  0  0  0  0  0
   -3.3529   -1.1920    0.0000 C   0  0  0  0  0  0  0  0  0  0  0  0
   -3.3529   -2.0170    0.0000 C   0  0  0  0  0  0  0  0  0  0  0  0
   -4.0674   -2.4295    0.0000 N   0  0  0  0  0  0  0  0  0  0  0  0
   -4.7818   -2.0170    0.0000 C   0  0  0  0  0  0  0  0  0  0  0  0
   -4.7818   -1.1920    0.0000 N   0  0  0  0  0  0  0  0  0  0  0  0
   -2.6384   -2.4295    0.0000 N   0  0  0  0  0  0  0  0  0  0  0  0
   -1.9240   -2.0170    0.0000 C   0  0  0  0  0  0  0  0  0  0  0  0
   -1.9240   -1.1920    0.0000 N   0  0  0  0  0  0  0  0  0  0  0  0
   -4.0674    0.0455    0.0000 N   0  0  0  0  0  0  0  0  0  0  0  0
   -2.6384   -3.2545    0.0000 R#  0  0  0  0  0  0  0  0  0  0  0  0
  1 10  1  0  0  0  0
  1  6  2  0  0  0  0
  1  2  1  0  0  0  0
  9  2  1  0  0  0  0
  2  3  2  0  0  0  0
  7  3  1  0  0  0  0
  3  4  1  0  0  0  0
  4  5  2  0  0  0  0
  5  6  1  0  0  0  0
  7  8  1  0  0  0  0
  7 11  1  0  0  0  0
  8  9  2  0  0  0  0
M  RGP  1  11   1
M  END

>  <symbol>
A

>  <m_abbr>
A

>  <m_type>
rna

>  <m_subtype>
natural

>  <m_RgroupIdx>
10

>  <m_Rgroups>
H

$$$$

  Marvin  06150820522D

  9  9  0  0  0  0            999 V2000
   -1.3611   -7.5896    0.0000 C   0  0  0  0  0  0  0  0  0  0  0  0
   -0.6466   -8.0021    0.0000 C   0  0  0  0  0  0  0  0  0  0  0  0
   -0.6466   -8.8271    0.0000 C   0  0  0  0  0  0  0  0  0  0  0  0
   -1.3611   -9.2396    0.0000 N   0  0  0  0  0  0  0  0  0  0  0  0
   -2.0755   -8.8271    0.0000 C   0  0  0  0  0  0  0  0  0  0  0  0
   -2.0755   -8.0021    0.0000 N   0  0  0  0  0  0  0  0  0  0  0  0
   -1.3611   -6.7646    0.0000 N   0  0  0  0  0  0  0  0  0  0  0  0
   -2.7900   -9.2396    0.0000 O   0  0  0  0  0  0  0  0  0  0  0  0
   -1.3611  -10.0646    0.0000 R#  0  0  0  0  0  0  0  0  0  0  0  0
  1  2  1  0  0  0  0
  1  6  2  0  0  0  0
  1  7  1  0  0  0  0
  2  3  2  0  0  0  0
  3  4  1  0  0  0  0
  4  5  1  0  0  0  0
  4  9  1  0  0  0  0
  5  6  1  0  0  0  0
  5  8  2  0  0  0  0
M  RGP  1   9   1
M  END

>  <symbol>
C

>  <m_abbr>
C

>  <m_type>
rna

>  <m_subtype>
natural

>  <m_RgroupIdx>
8

>  <m_Rgroups>
H

$$$$

  Marvin  06150820512D

  9  9  0  0  0  0            999 V2000
   -1.2138  -11.7383    0.0000 C   0  0  0  0  0  0  0  0  0  0  0  0
   -0.4993  -12.1508    0.0000 C   0  0  0  0  0  0  0  0  0  0  0  0
   -0.4993  -12.9758    0.0000 C   0  0  0  0  0  0  0  0  0  0  0  0
   -1.2138  -13.3884    0.0000 N   0  0  0  0  0  0  0  0  0  0  0  0
   -1.9283  -12.9758    0.0000 C   0  0  0  0  0  0  0  0  0  0  0  0
   -1.9283  -12.1508    0.0000 N   0  0  0  0  0  0  0  0  0  0  0  0
   -1.2138  -10.9133    0.0000 O   0  0  0  0  0  0  0  0  0  0  0  0
   -2.6427  -13.3883    0.0000 O   0  0  0  0  0  0  0  0  0  0  0  0
   -1.2138  -14.2134    0.0000 R#  0  0  0  0  0  0  0  0  0  0  0  0
  1  7  2  0  0  0  0
  1  6  1  0  0  0  0
  1  2  1  0  0  0  0
  2  3  2  0  0  0  0
  3  4  1  0  0  0  0
  4  5  1  0  0  0  0
  4  9  1  0  0  0  0
  5  8  2  0  0  0  0
  5  6  1  0  0  0  0
M  RGP  1   9   1
M  END

>  <symbol>
U

>  <m_abbr>
U

>  <m_type>
rna

>  <m_subtype>
natural

>  <m_RgroupIdx>
8

>  <m_Rgroups>
H

$$$$

  Marvin  06150820542D

 10 10  0  0  0  0            999 V2000
    5.8512   -2.0140    0.0000 C   0  0  0  0  0  0  0  0  0  0  0  0
    6.5686   -2.4215    0.0000 C   0  0  0  0  0  0  0  0  0  0  0  0
    6.5744   -3.2465    0.0000 C   0  0  0  0  0  0  0  0  0  0  0  0
    5.8628   -3.6641    0.0000 N   0  0  0  0  0  0  0  0  0  0  0  0
    5.1454   -3.2565    0.0000 C   0  0  0  0  0  0  0  0  0  0  0  0
    5.1396   -2.4315    0.0000 N   0  0  0  0  0  0  0  0  0  0  0  0
    5.8455   -1.1891    0.0000 O   0  0  0  0  0  0  0  0  0  0  0  0
    4.4339   -3.6740    0.0000 O   0  0  0  0  0  0  0  0  0  0  0  0
    5.8686   -4.4891    0.0000 R#  0  0  0  0  0  0  0  0  0  0  0  0
    7.3655   -2.2080    0.0000 C   0  0  0  0  0  0  0  0  0  0  0  0
  1  7  2  0  0  0  0
  1  6  1  0  0  0  0
  1  2  1  0  0  0  0
  2  3  2  0  0  0  0
  3  4  1  0  0  0  0
  4  5  1  0  0  0  0
  4  9  1  0  0  0  0
  5  8  2  0  0  0  0
  5  6  1  0  0  0  0
  2 10  1  0  0  0  0
M  RGP  1   9   1
M  END

>  <symbol>
T

>  <m_abbr>
T

>  <m_type>
rna

>  <m_subtype>
natural

>  <m_RgroupIdx>
8

>  <m_Rgroups>
H

$$$$

  Marvin  06150820452D

 12 12  0  0  0  0            999 V2000
    1.4617    2.2807    0.0000 O   0  0  0  0  0  0  0  0  0  0  0  0
    0.7479    1.8672    0.0000 C   0  0  1  0  0  0  0  0  0  0  0  0
    2.1768    1.8692    0.0000 C   0  0  2  0  0  0  0  0  0  0  0  0
    0.9625    1.0707    0.0000 C   0  0  2  0  0  0  0  0  0  0  0  0
    1.9644    1.0721    0.0000 C   0  0  1  0  0  0  0  0  0  0  0  0
    0.9637    0.2457    0.0000 O   0  0  0  0  0  0  0  0  0  0  0  0
    1.9656    0.2471    0.0000 O   0  0  0  0  0  0  0  0  0  0  0  0
    0.5994    2.7216    0.0000 C   0  0  0  0  0  0  0  0  0  0  0  0
    2.1756    2.9004    0.0000 R#  0  0  0  0  0  0  0  0  0  0  0  0
    0.1279    3.0752    0.0000 O   0  0  0  0  0  0  0  0  0  0  0  0
   -0.6971    3.2298    0.0000 R#  0  0  0  0  0  0  0  0  0  0  0  0
    1.6650   -0.3083    0.0000 R#  0  0  0  0  0  0  0  0  0  0  0  0
  1  2  1  0  0  0  0
  1  3  1  0  0  0  0
  2  4  1  0  0  0  0
  2  8  1  1  0  0  0
  3  5  1  0  0  0  0
  3  9  1  1  0  0  0
  4  5  1  0  0  0  0
  4  6  1  6  0  0  0
  5  7  1  6  0  0  0
  6 12  1  0  0  0  0
  8 10  1  0  0  0  0
 10 11  1  0  0  0  0
M  RGP  3   9   3  11   1  12   2
M  END

>  <symbol>
R

>  <m_abbr>
R

>  <m_type>
rna

>  <m_subtype>
natural

>  <m_RgroupIdx>
10,11,8

>  <m_Rgroups>
H,H,OH

$$$$

  Marvin  06150820472D

  5  4  0  0  0  0            999 V2000
    0.1179    0.7366    0.0000 P   0  0  0  0  0  0  0  0  0  0  0  0
   -0.7071    0.7366    0.0000 R#  0  0  0  0  0  0  0  0  0  0  0  0
    0.1179    1.5616    0.0000 O   0  0  0  0  0  0  0  0  0  0  0  0
    0.9429    0.7366    0.0000 R#  0  0  0  0  0  0  0  0  0  0  0  0
    0.1179   -0.0884    0.0000 O   0  0  0  0  0  0  0  0  0  0  0  0
  1  2  1  0  0  0  0
  1  3  2  0  0  0  0
  1  4  1  0  0  0  0
  1  5  1  0  0  0  0
M  RGP  2   2   1   4   2
M  END

>  <symbol>
P

>  <m_abbr>
P

>  <m_type>
rna

>  <m_subtype>
natural

>  <m_RgroupIdx>
1,3

>  <m_Rgroups>
OH,OH

$$$$

MolEngine07221613482D

 11 11  0  0  0  0            999 V2000
    5.2762    3.8090    0.0000 N   0  0  0  0  0  0  0  0  0  0  0  0
    5.2762    2.2867    0.0000 C   0  0  0  0  0  0  0  0  0  0  0  0
    3.9586    1.5230    0.0000 N   0  0  0  0  0  0  0  0  0  0  0  0
    2.6385    2.2867    0.0000 C   0  0  0  0  0  0  0  0  0  0  0  0
    2.6379    3.8090    0.0000 C   0  0  0  0  0  0  0  0  0  0  0  0
    3.9586    4.5700    0.0000 C   0  0  0  0  0  0  0  0  0  0  0  0
    3.9586    6.0930    0.0000 O   0  0  0  0  0  0  0  0  0  0  0  0
    6.5952    1.5252    0.0000 O   0  0  0  0  0  0  0  0  0  0  0  0
    1.3189    4.5705    0.0000 C   0  0  0  0  0  0  0  0  0  0  0  0
    0.0000    5.3320    0.0000 C   0  0  0  0  0  0  0  0  0  0  0  0
    3.9586    0.0000    0.0000 R#  0  0  0  0  0  0  0  0  0  0  0  0
  1  2  1  0  0  0  0
  2  3  1  0  0  0  0
  3  4  1  0  0  0  0
  4  5  2  0  0  0  0
  5  6  1  0  0  0  0
  1  6  1  0  0  0  0
  6  7  2  0  0  0  0
  2  8  2  0  0  0  0
  5  9  1  0  0  0  0
  9 10  3  0  0  0  0
  3 11  1  0  0  0  0
A   11
R1
M  END

>  <symbol>
ey5U

>  <m_abbr>
ey5U

>  <m_type>
rna

>  <m_subtype>
natural

>  <m_RgroupIdx>
10

>  <m_Rgroups>
H

$$$$

MolEngine07221613482D

 10 10  0  0  0  0            999 V2000
    3.8990    3.7500    0.0000 N   0  0  0  0  0  0  0  0  0  0  0  0
    3.8990    2.2500    0.0000 C   0  0  0  0  0  0  0  0  0  0  0  0
    2.6040    1.5000    0.0000 N   0  0  0  0  0  0  0  0  0  0  0  0
    1.2990    2.2500    0.0000 C   0  0  0  0  0  0  0  0  0  0  0  0
    1.2990    3.7500    0.0000 C   0  0  0  0  0  0  0  0  0  0  0  0
    2.6040    4.5000    0.0000 C   0  0  0  0  0  0  0  0  0  0  0  0
    2.6040    6.0000    0.0000 O   0  0  0  0  0  0  0  0  0  0  0  0
    2.6040    0.0000    0.0000 R#  0  0  0  0  0  0  0  0  0  0  0  0
    5.1981    1.5000    0.0000 O   0  0  0  0  0  0  0  0  0  0  0  0
    0.0000    4.5000    0.0000 F   0  0  0  0  0  0  0  0  0  0  0  0
  1  2  1  0  0  0  0
  2  3  1  0  0  0  0
  3  4  1  0  0  0  0
  4  5  2  0  0  0  0
  5  6  1  0  0  0  0
  1  6  1  0  0  0  0
  6  7  2  0  0  0  0
  3  8  1  0  0  0  0
  2  9  2  0  0  0  0
  5 10  1  0  0  0  0
A    8
R1
M  END

>  <symbol>
fl5U

>  <m_abbr>
fl5U

>  <m_type>
rna

>  <m_subtype>
natural

>  <m_RgroupIdx>
7

>  <m_Rgroups>
H

$$$$

MolEngine07221613482D

 10 10  0  0  0  0            999 V2000
    3.8990    3.7500    0.0000 N   0  0  0  0  0  0  0  0  0  0  0  0
    3.8990    2.2500    0.0000 C   0  0  0  0  0  0  0  0  0  0  0  0
    2.6040    1.5000    0.0000 N   0  0  0  0  0  0  0  0  0  0  0  0
    1.2990    2.2500    0.0000 C   0  0  0  0  0  0  0  0  0  0  0  0
    1.2990    3.7500    0.0000 C   0  0  0  0  0  0  0  0  0  0  0  0
    2.6040    4.5000    0.0000 C   0  0  0  0  0  0  0  0  0  0  0  0
    2.6040    6.0000    0.0000 O   0  0  0  0  0  0  0  0  0  0  0  0
    2.6040    0.0000    0.0000 R#  0  0  0  0  0  0  0  0  0  0  0  0
    5.1981    1.5000    0.0000 O   0  0  0  0  0  0  0  0  0  0  0  0
    0.0000    4.5000    0.0000 I   0  0  0  0  0  0  0  0  0  0  0  0
  1  2  1  0  0  0  0
  2  3  1  0  0  0  0
  3  4  1  0  0  0  0
  4  5  2  0  0  0  0
  5  6  1  0  0  0  0
  1  6  1  0  0  0  0
  6  7  2  0  0  0  0
  3  8  1  0  0  0  0
  2  9  2  0  0  0  0
  5 10  1  0  0  0  0
A    8
R1
M  END

>  <symbol>
io5U

>  <m_abbr>
io5U

>  <m_type>
rna

>  <m_subtype>
natural

>  <m_RgroupIdx>
7

>  <m_Rgroups>
H

$$$$

MolEngine07221613482D

 10 10  0  0  0  0            999 V2000
    3.8990    3.7500    0.0000 N   0  0  0  0  0  0  0  0  0  0  0  0
    3.8990    2.2500    0.0000 C   0  0  0  0  0  0  0  0  0  0  0  0
    2.6040    1.5000    0.0000 N   0  0  0  0  0  0  0  0  0  0  0  0
    1.2990    2.2500    0.0000 C   0  0  0  0  0  0  0  0  0  0  0  0
    1.2990    3.7500    0.0000 C   0  0  0  0  0  0  0  0  0  0  0  0
    2.6040    4.5000    0.0000 C   0  0  0  0  0  0  0  0  0  0  0  0
    2.6040    6.0000    0.0000 N   0  0  0  0  0  0  0  0  0  0  0  0
    2.6040    0.0000    0.0000 R#  0  0  0  0  0  0  0  0  0  0  0  0
    5.1980    1.5000    0.0000 O   0  0  0  0  0  0  0  0  0  0  0  0
    0.0000    4.5000    0.0000 C   0  0  0  0  0  0  0  0  0  0  0  0
  1  2  1  0  0  0  0
  2  3  1  0  0  0  0
  3  4  1  0  0  0  0
  4  5  2  0  0  0  0
  5  6  1  0  0  0  0
  1  6  2  0  0  0  0
  6  7  1  0  0  0  0
  3  8  1  0  0  0  0
  2  9  2  0  0  0  0
  5 10  1  0  0  0  0
A    8
R1
M  END

>  <symbol>
m5C

>  <m_abbr>
m5C

>  <m_type>
rna

>  <m_subtype>
natural

>  <m_RgroupIdx>
7

>  <m_Rgroups>
H

$$$$
5-tris-propynyl-uracil
MolEngine07221613482D

 19 19  0  0  0  0            999 V2000
    3.6373    8.8564    0.0000 C   0  0  0  0  0  0  0  0  0  0  0  0
    2.3383    8.1064    0.0000 C   0  0  0  0  0  0  0  0  0  0  0  0
    1.0393    8.8564    0.0000 C   0  0  0  0  0  0  0  0  0  0  0  0
    1.0393   10.3564    0.0000 N   0  0  0  0  0  0  0  0  0  0  0  0
    2.3383   11.1064    0.0000 C   0  0  0  0  0  0  0  0  0  0  0  0
    3.6373   10.3564    0.0000 N   0  0  0  0  0  0  0  0  0  0  0  0
    4.6766    8.2564    0.0000 O   0  0  0  0  0  0  0  0  0  0  0  0
    2.3383   12.3064    0.0000 O   0  0  0  0  0  0  0  0  0  0  0  0
    0.0000   10.9564    0.0000 R#  0  0  0  0  0  0  0  0  0  0  0  0
    2.3383    6.6056    0.0000 C   0  0  0  0  0  0  0  0  0  0  0  0
    2.3383    5.1047    0.0000 C   0  0  0  0  0  0  0  0  0  0  0  0
    2.3383    3.6039    0.0000 C   0  0  0  0  0  0  0  0  0  0  0  0
    3.6376    2.8527    0.0000 N   0  0  0  0  0  0  0  0  0  0  0  0
    3.6376    1.3519    0.0000 C   0  0  0  0  0  0  0  0  0  0  0  0
    4.9391    3.6000    0.0000 C   0  0  0  0  0  0  0  0  0  0  0  0
    4.9369    0.6006    0.0000 C   0  0  0  0  0  0  0  0  0  0  0  0
    6.2376    2.8474    0.0000 C   0  0  0  0  0  0  0  0  0  0  0  0
    5.9757    0.0000    0.0000 C   0  0  0  0  0  0  0  0  0  0  0  0
    7.2758    2.2455    0.0000 C   0  0  0  0  0  0  0  0  0  0  0  0
  1  7  2  0  0  0  0
  1  6  1  0  0  0  0
  1  2  1  0  0  0  0
  2  3  2  0  0  0  0
  3  4  1  0  0  0  0
  4  5  1  0  0  0  0
  4  9  1  0  0  0  0
  5  8  2  0  0  0  0
  5  6  1  0  0  0  0
  2 10  1  0  0  0  0
 10 11  3  0  0  0  0
 11 12  1  0  0  0  0
 12 13  1  0  0  0  0
 13 14  1  0  0  0  0
 13 15  1  0  0  0  0
 14 16  1  0  0  0  0
 15 17  1  0  0  0  0
 16 18  3  0  0  0  0
 17 19  3  0  0  0  0
A    9
R1
M  END

>  <symbol>
tp5U

>  <m_abbr>
tp5U

>  <m_type>
rna

>  <m_subtype>
natural

>  <m_RgroupIdx>
8

>  <m_Rgroups>
H

$$$$

MolEngine07221613482D

 11 12  0  0  0  0            999 V2000
    3.6619    4.2034    0.0000 C   0  0  0  0  0  0  0  0  0  0  0  0
    2.3429    3.4420    0.0000 C   0  0  0  0  0  0  0  0  0  0  0  0
    2.3428    1.9190    0.0000 C   0  0  0  0  0  0  0  0  0  0  0  0
    3.6617    1.1574    0.0000 N   0  0  0  0  0  0  0  0  0  0  0  0
    4.9807    1.9188    0.0000 C   0  0  0  0  0  0  0  0  0  0  0  0
    4.9809    3.4418    0.0000 N   0  0  0  0  0  0  0  0  0  0  0  0
    0.8951    1.4485    0.0000 N   0  0  0  0  0  0  0  0  0  0  0  0
    0.0000    2.6807    0.0000 C   0  0  0  0  0  0  0  0  0  0  0  0
    0.8953    3.9128    0.0000 N   0  0  0  0  0  0  0  0  0  0  0  0
    3.6621    5.7264    0.0000 N   0  0  0  0  0  0  0  0  0  0  0  0
    0.4245    0.0000    0.0000 R#  0  0  0  0  0  0  0  0  0  0  0  0
  1 10  1  0  0  0  0
  1  6  2  0  0  0  0
  1  2  1  0  0  0  0
  9  2  1  0  0  0  0
  2  3  2  0  0  0  0
  7  3  1  0  0  0  0
  3  4  1  0  0  0  0
  4  5  2  0  0  0  0
  5  6  1  0  0  0  0
  7  8  1  0  0  0  0
  7 11  1  0  0  0  0
  8  9  2  0  0  0  0
A   11
R1
M  END

>  <symbol>
A

>  <m_abbr>
A

>  <m_type>
rna

>  <m_subtype>
natural

>  <m_RgroupIdx>
10

>  <m_Rgroups>
H

$$$$

MolEngine07221613482D

  9  9  0  0  0  0            999 V2000
    2.6000    3.7500    0.0000 N   0  0  0  0  0  0  0  0  0  0  0  0
    2.6000    2.2500    0.0000 C   0  0  0  0  0  0  0  0  0  0  0  0
    1.3050    1.5000    0.0000 N   0  0  0  0  0  0  0  0  0  0  0  0
    0.0000    2.2500    0.0000 C   0  0  0  0  0  0  0  0  0  0  0  0
    0.0000    3.7500    0.0000 C   0  0  0  0  0  0  0  0  0  0  0  0
    1.3050    4.5000    0.0000 C   0  0  0  0  0  0  0  0  0  0  0  0
    1.3050    6.0000    0.0000 N   0  0  0  0  0  0  0  0  0  0  0  0
    1.3050    0.0000    0.0000 R#  0  0  0  0  0  0  0  0  0  0  0  0
    3.8990    1.5000    0.0000 O   0  0  0  0  0  0  0  0  0  0  0  0
  1  2  1  0  0  0  0
  2  3  1  0  0  0  0
  3  4  1  0  0  0  0
  4  5  2  0  0  0  0
  5  6  1  0  0  0  0
  1  6  2  0  0  0  0
  6  7  1  0  0  0  0
  3  8  1  0  0  0  0
  2  9  2  0  0  0  0
A    8
R1
M  END

>  <symbol>
C

>  <m_abbr>
C

>  <m_type>
rna

>  <m_subtype>
natural

>  <m_RgroupIdx>
7

>  <m_Rgroups>
H

$$$$

MolEngine07221613482D

 12 13  0  0  0  0            999 V2000
    4.9075    3.3883    0.0000 N   0  0  0  0  0  0  0  0  0  0  0  0
    4.9075    1.8883    0.0000 C   0  0  0  0  0  0  0  0  0  0  0  0
    3.6110    1.1357    0.0000 N   0  0  0  0  0  0  0  0  0  0  0  0
    2.3075    1.8883    0.0000 C   0  0  0  0  0  0  0  0  0  0  0  0
    2.3075    3.3883    0.0000 C   0  0  0  0  0  0  0  0  0  0  0  0
    3.6125    4.1383    0.0000 C   0  0  0  0  0  0  0  0  0  0  0  0
    0.0000    2.6383    0.0000 C   0  0  0  0  0  0  0  0  0  0  0  0
    0.8825    3.8583    0.0000 N   0  0  0  0  0  0  0  0  0  0  0  0
    3.6125    5.6383    0.0000 O   0  0  0  0  0  0  0  0  0  0  0  0
    6.2066    1.1383    0.0000 N   0  0  0  0  0  0  0  0  0  0  0  0
    0.8825    1.4258    0.0000 N   0  0  0  0  0  0  0  0  0  0  0  0
    0.4166    0.0000    0.0000 R#  0  0  0  0  0  0  0  0  0  0  0  0
  1  2  1  0  0  0  0
  2  3  2  0  0  0  0
  3  4  1  0  0  0  0
  4  5  2  0  0  0  0
  5  6  1  0  0  0  0
  1  6  1  0  0  0  0
  7  8  2  0  0  0  0
  5  8  1  0  0  0  0
  6  9  2  0  0  0  0
  2 10  1  0  0  0  0
  4 11  1  0  0  0  0
  7 11  1  0  0  0  0
 11 12  1  0  0  0  0
A   12
R1
M  END

>  <symbol>
G

>  <m_abbr>
G

>  <m_type>
rna

>  <m_subtype>
natural

>  <m_RgroupIdx>
11

>  <m_Rgroups>
H

$$$$

MolEngine07221613482D

 11 12  0  0  0  0            999 V2000
    3.6619    4.2034    0.0000 C   0  0  0  0  0  0  0  0  0  0  0  0
    2.3429    3.4420    0.0000 C   0  0  0  0  0  0  0  0  0  0  0  0
    2.3428    1.9190    0.0000 C   0  0  0  0  0  0  0  0  0  0  0  0
    3.6617    1.1574    0.0000 N   0  0  0  0  0  0  0  0  0  0  0  0
    4.9807    1.9187    0.0000 C   0  0  0  0  0  0  0  0  0  0  0  0
    4.9808    3.4417    0.0000 N   0  0  0  0  0  0  0  0  0  0  0  0
    0.8950    1.4485    0.0000 N   0  0  0  0  0  0  0  0  0  0  0  0
    0.0000    2.6807    0.0000 C   0  0  0  0  0  0  0  0  0  0  0  0
    0.8953    3.9128    0.0000 N   0  0  0  0  0  0  0  0  0  0  0  0
    3.6620    5.7264    0.0000 O   0  0  0  0  0  0  0  0  0  0  0  0
    0.4244    0.0000    0.0000 R#  0  0  0  0  0  0  0  0  0  0  0  0
  1 10  2  0  0  0  0
  1  6  1  0  0  0  0
  1  2  1  0  0  0  0
  9  2  1  0  0  0  0
  2  3  2  0  0  0  0
  7  3  1  0  0  0  0
  3  4  1  0  0  0  0
  4  5  2  0  0  0  0
  5  6  1  0  0  0  0
  7  8  1  0  0  0  0
  7 11  1  0  0  0  0
  8  9  2  0  0  0  0
A   11
R1
M  END

>  <symbol>
Hyp

>  <m_abbr>
Hyp

>  <m_type>
rna

>  <m_subtype>
natural

>  <m_RgroupIdx>
10

>  <m_Rgroups>
H

$$$$

MolEngine07221613482D

 10 10  0  0  0  0            999 V2000
    3.8990    3.7499    0.0000 N   0  0  0  0  0  0  0  0  0  0  0  0
    3.8990    2.2499    0.0000 C   0  0  0  0  0  0  0  0  0  0  0  0
    2.6040    1.5000    0.0000 N   0  0  0  0  0  0  0  0  0  0  0  0
    1.2990    2.2499    0.0000 C   0  0  0  0  0  0  0  0  0  0  0  0
    1.2990    3.7499    0.0000 C   0  0  0  0  0  0  0  0  0  0  0  0
    2.6040    4.4999    0.0000 C   0  0  0  0  0  0  0  0  0  0  0  0
    2.6040    5.9999    0.0000 O   0  0  0  0  0  0  0  0  0  0  0  0
    2.6040    0.0000    0.0000 R#  0  0  0  0  0  0  0  0  0  0  0  0
    5.1981    1.5000    0.0000 O   0  0  0  0  0  0  0  0  0  0  0  0
    0.0000    4.4999    0.0000 C   0  0  0  0  0  0  0  0  0  0  0  0
  1  2  1  0  0  0  0
  2  3  1  0  0  0  0
  3  4  1  0  0  0  0
  4  5  2  0  0  0  0
  5  6  1  0  0  0  0
  1  6  1  0  0  0  0
  6  7  2  0  0  0  0
  3  8  1  0  0  0  0
  2  9  2  0  0  0  0
  5 10  1  0  0  0  0
A    8
R1
M  END

>  <symbol>
T

>  <m_abbr>
T

>  <m_type>
rna

>  <m_subtype>
natural

>  <m_RgroupIdx>
7

>  <m_Rgroups>
H

$$$$

MolEngine07221613482D

  9  9  0  0  0  0            999 V2000
    2.6000    3.7500    0.0000 N   0  0  0  0  0  0  0  0  0  0  0  0
    2.6000    2.2500    0.0000 C   0  0  0  0  0  0  0  0  0  0  0  0
    1.3050    1.5000    0.0000 N   0  0  0  0  0  0  0  0  0  0  0  0
    0.0000    2.2500    0.0000 C   0  0  0  0  0  0  0  0  0  0  0  0
    0.0000    3.7500    0.0000 C   0  0  0  0  0  0  0  0  0  0  0  0
    1.3050    4.5000    0.0000 C   0  0  0  0  0  0  0  0  0  0  0  0
    1.3050    6.0000    0.0000 O   0  0  0  0  0  0  0  0  0  0  0  0
    1.3050    0.0000    0.0000 R#  0  0  0  0  0  0  0  0  0  0  0  0
    3.8991    1.5000    0.0000 O   0  0  0  0  0  0  0  0  0  0  0  0
  1  2  1  0  0  0  0
  2  3  1  0  0  0  0
  3  4  1  0  0  0  0
  4  5  2  0  0  0  0
  5  6  1  0  0  0  0
  1  6  1  0  0  0  0
  6  7  2  0  0  0  0
  3  8  1  0  0  0  0
  2  9  2  0  0  0  0
A    8
R1
M  END

>  <symbol>
U

>  <m_abbr>
U

>  <m_type>
rna

>  <m_subtype>
natural

>  <m_RgroupIdx>
7

>  <m_Rgroups>
H

$$$$
N-benzyl-adenine
MolEngine07221613482D

 18 20  0  0  0  0            999 V2000
    4.8861    2.9932    0.0000 C   0  0  0  0  0  0  0  0  0  0  0  0
    3.5871    2.2432    0.0000 C   0  0  0  0  0  0  0  0  0  0  0  0
    2.2881    2.9932    0.0000 C   0  0  0  0  0  0  0  0  0  0  0  0
    2.2881    4.4932    0.0000 N   0  0  0  0  0  0  0  0  0  0  0  0
    3.5871    5.2432    0.0000 C   0  0  0  0  0  0  0  0  0  0  0  0
    4.8861    4.4932    0.0000 N   0  0  0  0  0  0  0  0  0  0  0  0
    1.1738    1.9902    0.0000 N   0  0  0  0  0  0  0  0  0  0  0  0
    1.7839    0.6199    0.0000 C   0  0  0  0  0  0  0  0  0  0  0  0
    3.2757    0.7767    0.0000 N   0  0  0  0  0  0  0  0  0  0  0  0
    6.1874    2.2455    0.0000 N   0  0  0  0  0  0  0  0  0  0  0  0
    0.0000    2.2398    0.0000 R#  0  0  0  0  0  0  0  0  0  0  0  0
    7.4861    2.9977    0.0000 C   0  0  0  0  0  0  0  0  0  0  0  0
    8.7874    2.2500    0.0000 C   0  0  0  0  0  0  0  0  0  0  0  0
   11.3856    0.7500    0.0000 C   0  0  0  0  0  0  0  0  0  0  0  0
   11.3856    2.2500    0.0000 C   0  0  0  0  0  0  0  0  0  0  0  0
   10.0865    3.0000    0.0000 C   0  0  0  0  0  0  0  0  0  0  0  0
    8.7875    0.7499    0.0000 C   0  0  0  0  0  0  0  0  0  0  0  0
   10.0866    0.0000    0.0000 C   0  0  0  0  0  0  0  0  0  0  0  0
  1 10  1  0  0  0  0
  1  6  2  0  0  0  0
  1  2  1  0  0  0  0
  9  2  1  0  0  0  0
  2  3  2  0  0  0  0
  7  3  1  0  0  0  0
  3  4  1  0  0  0  0
  4  5  2  0  0  0  0
  5  6  1  0  0  0  0
  7  8  1  0  0  0  0
  7 11  1  0  0  0  0
  8  9  2  0  0  0  0
 10 12  1  0  0  0  0
 12 13  1  0  0  0  0
 16 13  2  0  0  0  0
 13 17  1  0  0  0  0
 14 15  2  0  0  0  0
 15 16  1  0  0  0  0
 17 18  2  0  0  0  0
 14 18  1  0  0  0  0
A   11
R1
M  END

>  <symbol>
bn6A

>  <m_abbr>
bn6A

>  <m_type>
rna

>  <m_subtype>
natural

>  <m_RgroupIdx>
10

>  <m_Rgroups>
H

$$$$
5-cyclopropyl-4-dimethylamino-cytosine
MolEngine07221613482D

 14 15  0  0  0  0            999 V2000
    3.6373    1.9531    0.0000 C   0  0  0  0  0  0  0  0  0  0  0  0
    3.6373    3.4531    0.0000 C   0  0  0  0  0  0  0  0  0  0  0  0
    2.3383    4.2031    0.0000 C   0  0  0  0  0  0  0  0  0  0  0  0
    1.0393    3.4531    0.0000 N   0  0  0  0  0  0  0  0  0  0  0  0
    1.0393    1.9531    0.0000 C   0  0  0  0  0  0  0  0  0  0  0  0
    2.3383    1.2031    0.0000 N   0  0  0  0  0  0  0  0  0  0  0  0
    4.9356    1.2000    0.0000 N   0  0  0  0  0  0  0  0  0  0  0  0
    0.0000    1.3531    0.0000 O   0  0  0  0  0  0  0  0  0  0  0  0
    0.0000    4.0531    0.0000 R#  0  0  0  0  0  0  0  0  0  0  0  0
    4.9370    4.2035    0.0000 C   0  0  0  0  0  0  0  0  0  0  0  0
    6.3579    4.1601    0.0000 C   0  0  0  0  0  0  0  0  0  0  0  0
    5.6059    5.4579    0.0000 C   0  0  0  0  0  0  0  0  0  0  0  0
    4.9339    0.0000    0.0000 C   0  0  0  0  0  0  0  0  0  0  0  0
    5.9758    1.7982    0.0000 C   0  0  0  0  0  0  0  0  0  0  0  0
  1  2  1  0  0  0  0
  1  6  2  0  0  0  0
  1  7  1  0  0  0  0
  2  3  2  0  0  0  0
  3  4  1  0  0  0  0
  4  5  1  0  0  0  0
  4  9  1  0  0  0  0
  5  6  1  0  0  0  0
  5  8  2  0  0  0  0
  2 10  1  0  0  0  0
 10 11  1  0  0  0  0
 10 12  1  0  0  0  0
 12 11  1  0  0  0  0
  7 13  1  0  0  0  0
  7 14  1  0  0  0  0
A    9
R1
M  END

>  <symbol>
cp5m42C

>  <m_abbr>
cp5m42C

>  <m_type>
rna

>  <m_subtype>
natural

>  <m_RgroupIdx>
8

>  <m_Rgroups>
H

$$$$

MolEngine07221613482D

 20 23  0  0  0  0            999 V2000
    1.1318    1.3189    0.0000 N   0  0  0  0  0  0  0  0  0  0  0  0
    0.3703    0.0000    0.0000 R#  0  0  0  0  0  0  0  0  0  0  0  0
    2.6380    1.5448    0.0000 C   0  0  0  0  0  0  0  0  0  0  0  0
    1.3190    3.8293    0.0000 C   0  0  0  0  0  0  0  0  0  0  0  0
    2.6380    3.0678    0.0000 C   0  0  0  0  0  0  0  0  0  0  0  0
    3.9569    3.8293    0.0000 C   0  0  0  0  0  0  0  0  0  0  0  0
    5.2759    3.0678    0.0000 N   0  0  0  0  0  0  0  0  0  0  0  0
    5.2759    1.5448    0.0000 C   0  0  0  0  0  0  0  0  0  0  0  0
    3.9569    0.7833    0.0000 N   0  0  0  0  0  0  0  0  0  0  0  0
    3.9569    5.3523    0.0000 N   0  0  0  0  0  0  0  0  0  0  0  0
    1.3190    5.3523    0.0000 C   0  0  0  0  0  0  0  0  0  0  0  0
    2.6380    6.1138    0.0000 C   0  0  0  0  0  0  0  0  0  0  0  0
    2.6380    7.6368    0.0000 C   0  0  0  0  0  0  0  0  0  0  0  0
    1.3190    8.3983    0.0000 C   0  0  0  0  0  0  0  0  0  0  0  0
    0.0000    7.6368    0.0000 C   0  0  0  0  0  0  0  0  0  0  0  0
    0.0000    6.1138    0.0000 C   0  0  0  0  0  0  0  0  0  0  0  0
    3.9569    8.3983    0.0000 O   0  0  0  0  0  0  0  0  0  0  0  0
    3.9569    9.9213    0.0000 C   0  0  0  0  0  0  0  0  0  0  0  0
    6.5948    0.7833    0.0000 N   0  0  0  0  0  0  0  0  0  0  0  0
    0.3703    2.6379    0.0000 C   0  0  0  0  0  0  0  0  0  0  0  0
  1  2  1  0  0  0  0
  1  3  1  0  0  0  0
  4  5  1  0  0  0  0
  5  3  2  0  0  0  0
  5  6  1  0  0  0  0
  6  7  2  0  0  0  0
  7  8  1  0  0  0  0
  8  9  2  0  0  0  0
  9  3  1  0  0  0  0
  6 10  1  0  0  0  0
  4 11  1  0  0  0  0
 11 12  1  0  0  0  0
 12 10  1  0  0  0  0
 12 13  2  0  0  0  0
 13 14  1  0  0  0  0
 14 15  2  0  0  0  0
 15 16  1  0  0  0  0
 16 11  2  0  0  0  0
 13 17  1  0  0  0  0
 17 18  1  0  0  0  0
  8 19  1  0  0  0  0
  4 20  2  0  0  0  0
 20  1  1  0  0  0  0
A    2
R1
M  END

>  <symbol>
tclampA

>  <m_abbr>
tclampA

>  <m_type>
rna

>  <m_subtype>
natural

>  <m_RgroupIdx>
1

>  <m_Rgroups>
H

$$$$
5-cyclopropyl-cytosine
MolEngine07221613482D

 12 13  0  0  0  0            999 V2000
    3.6373    0.7500    0.0000 C   0  0  0  0  0  0  0  0  0  0  0  0
    3.6373    2.2500    0.0000 C   0  0  0  0  0  0  0  0  0  0  0  0
    2.3383    3.0000    0.0000 C   0  0  0  0  0  0  0  0  0  0  0  0
    1.0393    2.2500    0.0000 N   0  0  0  0  0  0  0  0  0  0  0  0
    1.0393    0.7500    0.0000 C   0  0  0  0  0  0  0  0  0  0  0  0
    2.3383    0.0000    0.0000 N   0  0  0  0  0  0  0  0  0  0  0  0
    4.6766    0.1500    0.0000 N   0  0  0  0  0  0  0  0  0  0  0  0
    0.0000    0.1500    0.0000 O   0  0  0  0  0  0  0  0  0  0  0  0
    0.0000    2.8500    0.0000 R#  0  0  0  0  0  0  0  0  0  0  0  0
    4.9370    3.0004    0.0000 C   0  0  0  0  0  0  0  0  0  0  0  0
    6.3579    2.9570    0.0000 C   0  0  0  0  0  0  0  0  0  0  0  0
    5.6059    4.2548    0.0000 C   0  0  0  0  0  0  0  0  0  0  0  0
  1  2  1  0  0  0  0
  1  6  2  0  0  0  0
  1  7  1  0  0  0  0
  2  3  2  0  0  0  0
  3  4  1  0  0  0  0
  4  5  1  0  0  0  0
  4  9  1  0  0  0  0
  5  6  1  0  0  0  0
  5  8  2  0  0  0  0
  2 10  1  0  0  0  0
 10 11  1  0  0  0  0
 10 12  1  0  0  0  0
 12 11  1  0  0  0  0
A    9
R1
M  END

>  <symbol>
cp5C

>  <m_abbr>
cp5C

>  <m_type>
rna

>  <m_subtype>
natural

>  <m_RgroupIdx>
8

>  <m_Rgroups>
H

$$$$
5-cyclopropyl-uracil
MolEngine07221613482D

 12 13  0  0  0  0            999 V2000
    3.6373    3.4596    0.0000 C   0  0  0  0  0  0  0  0  0  0  0  0
    2.3383    2.7096    0.0000 C   0  0  0  0  0  0  0  0  0  0  0  0
    1.0393    3.4596    0.0000 C   0  0  0  0  0  0  0  0  0  0  0  0
    1.0393    4.9596    0.0000 N   0  0  0  0  0  0  0  0  0  0  0  0
    2.3383    5.7096    0.0000 C   0  0  0  0  0  0  0  0  0  0  0  0
    3.6373    4.9596    0.0000 N   0  0  0  0  0  0  0  0  0  0  0  0
    4.6766    2.8596    0.0000 O   0  0  0  0  0  0  0  0  0  0  0  0
    2.3383    6.9096    0.0000 O   0  0  0  0  0  0  0  0  0  0  0  0
    0.0000    5.5596    0.0000 R#  0  0  0  0  0  0  0  0  0  0  0  0
    2.3383    1.2088    0.0000 C   0  0  0  0  0  0  0  0  0  0  0  0
    1.5902    0.0000    0.0000 C   0  0  0  0  0  0  0  0  0  0  0  0
    3.0902    0.0024    0.0000 C   0  0  0  0  0  0  0  0  0  0  0  0
  1  7  2  0  0  0  0
  1  6  1  0  0  0  0
  1  2  1  0  0  0  0
  2  3  2  0  0  0  0
  3  4  1  0  0  0  0
  4  5  1  0  0  0  0
  4  9  1  0  0  0  0
  5  8  2  0  0  0  0
  5  6  1  0  0  0  0
  2 10  1  0  0  0  0
 10 11  1  0  0  0  0
 10 12  1  0  0  0  0
 12 11  1  0  0  0  0
A    9
R1
M  END

>  <symbol>
cp5U

>  <m_abbr>
cp5U

>  <m_type>
rna

>  <m_subtype>
natural

>  <m_RgroupIdx>
8

>  <m_Rgroups>
H

$$$$
N-cyclopropylmethyl-adenine
MolEngine07221613482D

 15 17  0  0  0  0            999 V2000
    4.8861    2.3733    0.0000 C   0  0  0  0  0  0  0  0  0  0  0  0
    3.5871    1.6233    0.0000 C   0  0  0  0  0  0  0  0  0  0  0  0
    2.2881    2.3733    0.0000 C   0  0  0  0  0  0  0  0  0  0  0  0
    2.2881    3.8733    0.0000 N   0  0  0  0  0  0  0  0  0  0  0  0
    3.5871    4.6233    0.0000 C   0  0  0  0  0  0  0  0  0  0  0  0
    4.8861    3.8733    0.0000 N   0  0  0  0  0  0  0  0  0  0  0  0
    1.1738    1.3703    0.0000 N   0  0  0  0  0  0  0  0  0  0  0  0
    1.7839    0.0000    0.0000 C   0  0  0  0  0  0  0  0  0  0  0  0
    3.2757    0.1568    0.0000 N   0  0  0  0  0  0  0  0  0  0  0  0
    6.1874    1.6256    0.0000 N   0  0  0  0  0  0  0  0  0  0  0  0
    0.0000    1.6199    0.0000 R#  0  0  0  0  0  0  0  0  0  0  0  0
    7.4861    2.3778    0.0000 C   0  0  0  0  0  0  0  0  0  0  0  0
    8.7874    1.6301    0.0000 C   0  0  0  0  0  0  0  0  0  0  0  0
   10.2083    1.6757    0.0000 C   0  0  0  0  0  0  0  0  0  0  0  0
    9.4582    0.3767    0.0000 C   0  0  0  0  0  0  0  0  0  0  0  0
  1 10  1  0  0  0  0
  1  6  2  0  0  0  0
  1  2  1  0  0  0  0
  9  2  1  0  0  0  0
  2  3  2  0  0  0  0
  7  3  1  0  0  0  0
  3  4  1  0  0  0  0
  4  5  2  0  0  0  0
  5  6  1  0  0  0  0
  7  8  1  0  0  0  0
  7 11  1  0  0  0  0
  8  9  2  0  0  0  0
 10 12  1  0  0  0  0
 12 13  1  0  0  0  0
 13 14  1  0  0  0  0
 13 15  1  0  0  0  0
 15 14  1  0  0  0  0
A   11
R1
M  END

>  <symbol>
cpm6A

>  <m_abbr>
cpm6A

>  <m_type>
rna

>  <m_subtype>
natural

>  <m_RgroupIdx>
10

>  <m_Rgroups>
H

$$$$
N,N-dimethyl-Adenine
MolEngine07221613482D

 13 14  0  0  0  0            999 V2000
    4.8861    2.3733    0.0000 C   0  0  0  0  0  0  0  0  0  0  0  0
    3.5871    1.6233    0.0000 C   0  0  0  0  0  0  0  0  0  0  0  0
    2.2881    2.3733    0.0000 C   0  0  0  0  0  0  0  0  0  0  0  0
    2.2881    3.8733    0.0000 N   0  0  0  0  0  0  0  0  0  0  0  0
    3.5871    4.6233    0.0000 C   0  0  0  0  0  0  0  0  0  0  0  0
    4.8861    3.8733    0.0000 N   0  0  0  0  0  0  0  0  0  0  0  0
    1.1738    1.3703    0.0000 N   0  0  0  0  0  0  0  0  0  0  0  0
    1.7839    0.0000    0.0000 C   0  0  0  0  0  0  0  0  0  0  0  0
    3.2757    0.1568    0.0000 N   0  0  0  0  0  0  0  0  0  0  0  0
    6.1874    1.6256    0.0000 N   0  0  0  0  0  0  0  0  0  0  0  0
    0.0000    1.6199    0.0000 R#  0  0  0  0  0  0  0  0  0  0  0  0
    7.2258    2.2270    0.0000 C   0  0  0  0  0  0  0  0  0  0  0  0
    6.1895    0.4256    0.0000 C   0  0  0  0  0  0  0  0  0  0  0  0
  1 10  1  0  0  0  0
  1  6  2  0  0  0  0
  1  2  1  0  0  0  0
  9  2  1  0  0  0  0
  2  3  2  0  0  0  0
  7  3  1  0  0  0  0
  3  4  1  0  0  0  0
  4  5  2  0  0  0  0
  5  6  1  0  0  0  0
  7  8  1  0  0  0  0
  7 11  1  0  0  0  0
  8  9  2  0  0  0  0
 10 12  1  0  0  0  0
 10 13  1  0  0  0  0
A   11
R1
M  END

>  <symbol>
m62A

>  <m_abbr>
m62A

>  <m_type>
rna

>  <m_subtype>
natural

>  <m_RgroupIdx>
10

>  <m_Rgroups>
H

$$$$
7-deaza-8-aza-7-bromo-2-amino-Adenine
MolEngine07221613482D

 13 14  0  0  0  0            999 V2000
    4.8861    3.1082    0.0000 C   0  0  0  0  0  0  0  0  0  0  0  0
    3.5871    2.3582    0.0000 C   0  0  0  0  0  0  0  0  0  0  0  0
    2.2881    3.1082    0.0000 C   0  0  0  0  0  0  0  0  0  0  0  0
    2.2881    4.6082    0.0000 N   0  0  0  0  0  0  0  0  0  0  0  0
    3.5871    5.3582    0.0000 C   0  0  0  0  0  0  0  0  0  0  0  0
    4.8861    4.6082    0.0000 N   0  0  0  0  0  0  0  0  0  0  0  0
    1.1738    2.1052    0.0000 N   0  0  0  0  0  0  0  0  0  0  0  0
    1.7839    0.7349    0.0000 N   0  0  0  0  0  0  0  0  0  0  0  0
    3.2757    0.8917    0.0000 C   0  0  0  0  0  0  0  0  0  0  0  0
    5.9254    2.5082    0.0000 N   0  0  0  0  0  0  0  0  0  0  0  0
    0.0000    2.3548    0.0000 R#  0  0  0  0  0  0  0  0  0  0  0  0
    3.5871    6.5582    0.0000 N   0  0  0  0  0  0  0  0  0  0  0  0
    4.0787    0.0000    0.0000 Br  0  0  0  0  0  0  0  0  0  0  0  0
  1 10  1  0  0  0  0
  1  6  2  0  0  0  0
  1  2  1  0  0  0  0
  9  2  1  0  0  0  0
  2  3  2  0  0  0  0
  7  3  1  0  0  0  0
  3  4  1  0  0  0  0
  4  5  2  0  0  0  0
  5  6  1  0  0  0  0
  7  8  1  0  0  0  0
  7 11  1  0  0  0  0
  8  9  2  0  0  0  0
  5 12  1  0  0  0  0
  9 13  1  0  0  0  0
A   11
R1
M  END

>  <symbol>
n2br7c7z8A

>  <m_abbr>
n2br7c7z8A

>  <m_type>
rna

>  <m_subtype>
natural

>  <m_RgroupIdx>
10

>  <m_Rgroups>
H

$$$$
2,4-Difluoro-Benzene
MolEngine07221613482D

  9  9  0  0  0  0            999 V2000
    3.6373    0.7500    0.0000 C   0  0  0  0  0  0  0  0  0  0  0  0
    3.6373    2.2500    0.0000 C   0  0  0  0  0  0  0  0  0  0  0  0
    2.3383    3.0000    0.0000 C   0  0  0  0  0  0  0  0  0  0  0  0
    1.0393    2.2500    0.0000 C   0  0  0  0  0  0  0  0  0  0  0  0
    1.0393    0.7500    0.0000 C   0  0  0  0  0  0  0  0  0  0  0  0
    2.3383    0.0000    0.0000 C   0  0  0  0  0  0  0  0  0  0  0  0
    4.6766    0.1500    0.0000 F   0  0  0  0  0  0  0  0  0  0  0  0
    0.0000    0.1500    0.0000 F   0  0  0  0  0  0  0  0  0  0  0  0
    0.0000    2.8500    0.0000 R#  0  0  0  0  0  0  0  0  0  0  0  0
  1  2  1  0  0  0  0
  2  3  2  0  0  0  0
  3  4  1  0  0  0  0
  4  5  2  0  0  0  0
  5  6  1  0  0  0  0
  1  6  2  0  0  0  0
  1  7  1  0  0  0  0
  5  8  1  0  0  0  0
  4  9  1  0  0  0  0
A    9
R1
M  END

>  <symbol>
fl24Ph

>  <m_abbr>
fl24Ph

>  <m_type>
rna

>  <m_subtype>
natural

>  <m_RgroupIdx>
8

>  <m_Rgroups>
H

$$$$
N-ethyl-adenine
MolEngine07221613482D

 13 14  0  0  0  0            999 V2000
    4.8861    2.3733    0.0000 C   0  0  0  0  0  0  0  0  0  0  0  0
    3.5871    1.6233    0.0000 C   0  0  0  0  0  0  0  0  0  0  0  0
    2.2881    2.3733    0.0000 C   0  0  0  0  0  0  0  0  0  0  0  0
    2.2881    3.8733    0.0000 N   0  0  0  0  0  0  0  0  0  0  0  0
    3.5871    4.6233    0.0000 C   0  0  0  0  0  0  0  0  0  0  0  0
    4.8861    3.8733    0.0000 N   0  0  0  0  0  0  0  0  0  0  0  0
    1.1738    1.3703    0.0000 N   0  0  0  0  0  0  0  0  0  0  0  0
    1.7839    0.0000    0.0000 C   0  0  0  0  0  0  0  0  0  0  0  0
    3.2757    0.1568    0.0000 N   0  0  0  0  0  0  0  0  0  0  0  0
    6.1874    1.6256    0.0000 N   0  0  0  0  0  0  0  0  0  0  0  0
    0.0000    1.6199    0.0000 R#  0  0  0  0  0  0  0  0  0  0  0  0
    7.4861    2.3778    0.0000 C   0  0  0  0  0  0  0  0  0  0  0  0
    8.5266    1.7800    0.0000 C   0  0  0  0  0  0  0  0  0  0  0  0
  1 10  1  0  0  0  0
  1  6  2  0  0  0  0
  1  2  1  0  0  0  0
  9  2  1  0  0  0  0
  2  3  2  0  0  0  0
  7  3  1  0  0  0  0
  3  4  1  0  0  0  0
  4  5  2  0  0  0  0
  5  6  1  0  0  0  0
  7  8  1  0  0  0  0
  7 11  1  0  0  0  0
  8  9  2  0  0  0  0
 10 12  1  0  0  0  0
 12 13  1  0  0  0  0
A   11
R1
M  END

>  <symbol>
e6A

>  <m_abbr>
e6A

>  <m_type>
rna

>  <m_subtype>
natural

>  <m_RgroupIdx>
10

>  <m_Rgroups>
H

$$$$
N-Methyl-Adenine
MolEngine07221613482D

 12 13  0  0  0  0            999 V2000
    4.8861    2.3733    0.0000 C   0  0  0  0  0  0  0  0  0  0  0  0
    3.5871    1.6233    0.0000 C   0  0  0  0  0  0  0  0  0  0  0  0
    2.2881    2.3733    0.0000 C   0  0  0  0  0  0  0  0  0  0  0  0
    2.2881    3.8733    0.0000 N   0  0  0  0  0  0  0  0  0  0  0  0
    3.5871    4.6233    0.0000 C   0  0  0  0  0  0  0  0  0  0  0  0
    4.8861    3.8733    0.0000 N   0  0  0  0  0  0  0  0  0  0  0  0
    1.1738    1.3703    0.0000 N   0  0  0  0  0  0  0  0  0  0  0  0
    1.7839    0.0000    0.0000 C   0  0  0  0  0  0  0  0  0  0  0  0
    3.2757    0.1568    0.0000 N   0  0  0  0  0  0  0  0  0  0  0  0
    6.1874    1.6256    0.0000 N   0  0  0  0  0  0  0  0  0  0  0  0
    0.0000    1.6199    0.0000 R#  0  0  0  0  0  0  0  0  0  0  0  0
    7.2258    2.2270    0.0000 C   0  0  0  0  0  0  0  0  0  0  0  0
  1 10  1  0  0  0  0
  1  6  2  0  0  0  0
  1  2  1  0  0  0  0
  9  2  1  0  0  0  0
  2  3  2  0  0  0  0
  7  3  1  0  0  0  0
  3  4  1  0  0  0  0
  4  5  2  0  0  0  0
  5  6  1  0  0  0  0
  7  8  1  0  0  0  0
  7 11  1  0  0  0  0
  8  9  2  0  0  0  0
 10 12  1  0  0  0  0
A   11
R1
M  END

>  <symbol>
m6A

>  <m_abbr>
m6A

>  <m_type>
rna

>  <m_subtype>
natural

>  <m_RgroupIdx>
10

>  <m_Rgroups>
H

$$$$

MolEngine07221613482D

 12 12  0  0  0  0            999 V2000
    6.5025    3.7525    0.0000 N   0  0  0  0  0  0  0  0  0  0  0  0
    6.5025    2.2500    0.0000 C   0  0  0  0  0  0  0  0  0  0  0  0
    5.2025    1.5000    0.0000 N   0  0  0  0  0  0  0  0  0  0  0  0
    3.9000    2.2500    0.0000 C   0  0  0  0  0  0  0  0  0  0  0  0
    3.9000    3.7525    0.0000 C   0  0  0  0  0  0  0  0  0  0  0  0
    5.2025    4.5025    0.0000 C   0  0  0  0  0  0  0  0  0  0  0  0
    5.2025    5.8975    0.0000 N   0  0  0  0  0  0  0  0  0  0  0  0
    7.8100    1.5000    0.0000 O   0  0  0  0  0  0  0  0  0  0  0  0
    2.6000    4.5025    0.0000 C   0  0  0  0  0  0  0  0  0  0  0  0
    1.3000    5.2525    0.0000 C   0  0  0  0  0  0  0  0  0  0  0  0
    0.0000    6.0025    0.0000 C   0  0  0  0  0  0  0  0  0  0  0  0
    5.2025    0.0000    0.0000 R#  0  0  0  0  0  0  0  0  0  0  0  0
  1  2  1  0  0  0  0
  2  3  1  0  0  0  0
  3  4  1  0  0  0  0
  4  5  2  0  0  0  0
  5  6  1  0  0  0  0
  1  6  2  0  0  0  0
  6  7  1  0  0  0  0
  2  8  2  0  0  0  0
  5  9  1  0  0  0  0
  9 10  3  0  0  0  0
 10 11  1  0  0  0  0
  3 12  1  0  0  0  0
A   12
R1
M  END

>  <symbol>
pry5C

>  <m_abbr>
pry5C

>  <m_type>
rna

>  <m_subtype>
natural

>  <m_RgroupIdx>
11

>  <m_Rgroups>
H

$$$$

MolEngine07221613482D

 12 12  0  0  0  0            999 V2000
    6.5025    3.7525    0.0000 N   0  0  0  0  0  0  0  0  0  0  0  0
    6.5025    2.2500    0.0000 C   0  0  0  0  0  0  0  0  0  0  0  0
    5.2025    1.5000    0.0000 N   0  0  0  0  0  0  0  0  0  0  0  0
    3.9000    2.2500    0.0000 C   0  0  0  0  0  0  0  0  0  0  0  0
    3.9000    3.7525    0.0000 C   0  0  0  0  0  0  0  0  0  0  0  0
    5.2025    4.5025    0.0000 C   0  0  0  0  0  0  0  0  0  0  0  0
    5.2025    5.8975    0.0000 O   0  0  0  0  0  0  0  0  0  0  0  0
    7.8100    1.5000    0.0000 O   0  0  0  0  0  0  0  0  0  0  0  0
    2.6000    4.5025    0.0000 C   0  0  0  0  0  0  0  0  0  0  0  0
    1.3000    5.2525    0.0000 C   0  0  0  0  0  0  0  0  0  0  0  0
    0.0000    6.0025    0.0000 C   0  0  0  0  0  0  0  0  0  0  0  0
    5.2025    0.0000    0.0000 R#  0  0  0  0  0  0  0  0  0  0  0  0
  1  2  1  0  0  0  0
  2  3  1  0  0  0  0
  3  4  1  0  0  0  0
  4  5  2  0  0  0  0
  5  6  1  0  0  0  0
  1  6  1  0  0  0  0
  6  7  2  0  0  0  0
  2  8  2  0  0  0  0
  5  9  1  0  0  0  0
  9 10  3  0  0  0  0
 10 11  1  0  0  0  0
  3 12  1  0  0  0  0
A   12
R1
M  END

>  <symbol>
pry5U

>  <m_abbr>
pry5U

>  <m_type>
rna

>  <m_subtype>
natural

>  <m_RgroupIdx>
11

>  <m_Rgroups>
H

$$$$
5-trifluoromethyl-uracil
MolEngine07221613482D

 13 13  0  0  0  0            999 V2000
    3.6373    3.4508    0.0000 C   0  0  0  0  0  0  0  0  0  0  0  0
    2.3383    2.7008    0.0000 C   0  0  0  0  0  0  0  0  0  0  0  0
    1.0393    3.4508    0.0000 C   0  0  0  0  0  0  0  0  0  0  0  0
    1.0393    4.9508    0.0000 N   0  0  0  0  0  0  0  0  0  0  0  0
    2.3383    5.7008    0.0000 C   0  0  0  0  0  0  0  0  0  0  0  0
    3.6373    4.9508    0.0000 N   0  0  0  0  0  0  0  0  0  0  0  0
    4.6766    2.8508    0.0000 O   0  0  0  0  0  0  0  0  0  0  0  0
    2.3383    6.9008    0.0000 O   0  0  0  0  0  0  0  0  0  0  0  0
    0.0000    5.5508    0.0000 R#  0  0  0  0  0  0  0  0  0  0  0  0
    2.3383    1.2000    0.0000 C   0  0  0  0  0  0  0  0  0  0  0  0
    3.3772    0.5993    0.0000 F   0  0  0  0  0  0  0  0  0  0  0  0
    1.2989    0.6003    0.0000 F   0  0  0  0  0  0  0  0  0  0  0  0
    2.3377    0.0000    0.0000 F   0  0  0  0  0  0  0  0  0  0  0  0
  1  7  2  0  0  0  0
  1  6  1  0  0  0  0
  1  2  1  0  0  0  0
  2  3  2  0  0  0  0
  3  4  1  0  0  0  0
  4  5  1  0  0  0  0
  4  9  1  0  0  0  0
  5  8  2  0  0  0  0
  5  6  1  0  0  0  0
  2 10  1  0  0  0  0
 10 11  1  0  0  0  0
 10 12  1  0  0  0  0
 10 13  1  0  0  0  0
A    9
R1
M  END

>  <symbol>
tflm5U

>  <m_abbr>
tflm5U

>  <m_type>
rna

>  <m_subtype>
natural

>  <m_RgroupIdx>
8

>  <m_Rgroups>
H

$$$$

MolEngine07221613482D

 10 10  0  0  0  0            999 V2000
    3.8990    3.7499    0.0000 N   0  0  0  0  0  0  0  0  0  0  0  0
    3.8990    2.2499    0.0000 C   0  0  0  0  0  0  0  0  0  0  0  0
    2.6040    1.5000    0.0000 N   0  0  0  0  0  0  0  0  0  0  0  0
    1.2990    2.2499    0.0000 C   0  0  0  0  0  0  0  0  0  0  0  0
    1.2990    3.7499    0.0000 C   0  0  0  0  0  0  0  0  0  0  0  0
    2.6040    4.4999    0.0000 C   0  0  0  0  0  0  0  0  0  0  0  0
    2.6040    5.9999    0.0000 O   0  0  0  0  0  0  0  0  0  0  0  0
    2.6040    0.0000    0.0000 R#  0  0  0  0  0  0  0  0  0  0  0  0
    5.1981    1.5000    0.0000 O   0  0  0  0  0  0  0  0  0  0  0  0
    0.0000    4.4999    0.0000 Br  0  0  0  0  0  0  0  0  0  0  0  0
  1  2  1  0  0  0  0
  2  3  1  0  0  0  0
  3  4  1  0  0  0  0
  4  5  2  0  0  0  0
  5  6  1  0  0  0  0
  1  6  1  0  0  0  0
  6  7  2  0  0  0  0
  3  8  1  0  0  0  0
  2  9  2  0  0  0  0
  5 10  1  0  0  0  0
A    8
R1
M  END

>  <symbol>
br5U

>  <m_abbr>
br5U

>  <m_type>
rna

>  <m_subtype>
natural

>  <m_RgroupIdx>
7

>  <m_Rgroups>
H

$$$$

MolEngine07221613482D

 10 10  0  0  0  0            999 V2000
    3.9182    3.7499    0.0000 N   0  0  0  0  0  0  0  0  0  0  0  0
    3.9182    2.2499    0.0000 C   0  0  0  0  0  0  0  0  0  0  0  0
    2.6232    1.5000    0.0000 N   0  0  0  0  0  0  0  0  0  0  0  0
    1.3182    2.2499    0.0000 C   0  0  0  0  0  0  0  0  0  0  0  0
    1.3182    3.7499    0.0000 C   0  0  0  0  0  0  0  0  0  0  0  0
    2.6232    4.4999    0.0000 C   0  0  0  0  0  0  0  0  0  0  0  0
    2.6232    5.9999    0.0000 O   0  0  0  0  0  0  0  0  0  0  0  0
    2.6232    0.0000    0.0000 R#  0  0  0  0  0  0  0  0  0  0  0  0
    5.2173    1.5000    0.0000 O   0  0  0  0  0  0  0  0  0  0  0  0
    0.0000    1.4871    0.0000 C   0  0  0  0  0  0  0  0  0  0  0  0
  1  2  1  0  0  0  0
  2  3  1  0  0  0  0
  3  4  1  0  0  0  0
  4  5  2  0  0  0  0
  5  6  1  0  0  0  0
  1  6  1  0  0  0  0
  6  7  2  0  0  0  0
  3  8  1  0  0  0  0
  2  9  2  0  0  0  0
  4 10  1  0  0  0  0
A    8
R1
M  END

>  <symbol>
m6U

>  <m_abbr>
m6U

>  <m_type>
rna

>  <m_subtype>
natural

>  <m_RgroupIdx>
7

>  <m_Rgroups>
H

$$$$

MolEngine07221613482D

 11 11  0  0  0  0            999 V2000
    3.9182    3.7499    0.0000 N   0  0  0  0  0  0  0  0  0  0  0  0
    3.9182    2.2499    0.0000 C   0  0  0  0  0  0  0  0  0  0  0  0
    2.6232    1.5000    0.0000 N   0  0  0  0  0  0  0  0  0  0  0  0
    1.3182    2.2499    0.0000 C   0  0  0  0  0  0  0  0  0  0  0  0
    1.3182    3.7499    0.0000 C   0  0  0  0  0  0  0  0  0  0  0  0
    2.6232    4.4999    0.0000 C   0  0  0  0  0  0  0  0  0  0  0  0
    2.6232    5.9999    0.0000 O   0  0  0  0  0  0  0  0  0  0  0  0
    2.6232    0.0000    0.0000 R#  0  0  0  0  0  0  0  0  0  0  0  0
    5.2173    1.5000    0.0000 O   0  0  0  0  0  0  0  0  0  0  0  0
    0.0000    1.4871    0.0000 C   0  0  0  0  0  0  0  0  0  0  0  0
    0.0000    4.5127    0.0000 C   0  0  0  0  0  0  0  0  0  0  0  0
  1  2  1  0  0  0  0
  2  3  1  0  0  0  0
  3  4  1  0  0  0  0
  4  5  2  0  0  0  0
  5  6  1  0  0  0  0
  1  6  1  0  0  0  0
  6  7  2  0  0  0  0
  3  8  1  0  0  0  0
  2  9  2  0  0  0  0
  4 10  1  0  0  0  0
  5 11  1  0  0  0  0
A    8
R1
M  END

>  <symbol>
m6T

>  <m_abbr>
m6T

>  <m_type>
rna

>  <m_subtype>
natural

>  <m_RgroupIdx>
7

>  <m_Rgroups>
H

$$$$

MolEngine07221613482D

  9  9  0  0  0  0            999 V2000
    2.6000    3.7499    0.0000 N   0  0  0  0  0  0  0  0  0  0  0  0
    2.6000    2.2499    0.0000 C   0  0  0  0  0  0  0  0  0  0  0  0
    1.3050    1.5000    0.0000 N   0  0  0  0  0  0  0  0  0  0  0  0
    0.0000    2.2499    0.0000 N   0  0  0  0  0  0  0  0  0  0  0  0
    0.0000    3.7499    0.0000 C   0  0  0  0  0  0  0  0  0  0  0  0
    1.3050    4.4999    0.0000 C   0  0  0  0  0  0  0  0  0  0  0  0
    1.3050    5.9999    0.0000 O   0  0  0  0  0  0  0  0  0  0  0  0
    1.3050    0.0000    0.0000 R#  0  0  0  0  0  0  0  0  0  0  0  0
    3.8991    1.5000    0.0000 O   0  0  0  0  0  0  0  0  0  0  0  0
  1  2  1  0  0  0  0
  2  3  1  0  0  0  0
  3  4  1  0  0  0  0
  4  5  2  0  0  0  0
  5  6  1  0  0  0  0
  1  6  1  0  0  0  0
  6  7  2  0  0  0  0
  3  8  1  0  0  0  0
  2  9  2  0  0  0  0
A    8
R1
M  END

>  <symbol>
z6U

>  <m_abbr>
z6U

>  <m_type>
rna

>  <m_subtype>
natural

>  <m_RgroupIdx>
7

>  <m_Rgroups>
H

$$$$

MolEngine07221613482D

 14 15  0  0  0  0            999 V2000
    6.3676    3.8075    0.0000 N   0  0  0  0  0  0  0  0  0  0  0  0
    6.3676    2.2845    0.0000 C   0  0  0  0  0  0  0  0  0  0  0  0
    5.0528    1.5230    0.0000 N   0  0  0  0  0  0  0  0  0  0  0  0
    3.7277    2.2845    0.0000 N   0  0  0  0  0  0  0  0  0  0  0  0
    3.7277    3.8075    0.0000 C   0  0  0  0  0  0  0  0  0  0  0  0
    5.0528    4.5690    0.0000 C   0  0  0  0  0  0  0  0  0  0  0  0
    5.0528    6.0920    0.0000 O   0  0  0  0  0  0  0  0  0  0  0  0
    5.0528    0.0000    0.0000 R#  0  0  0  0  0  0  0  0  0  0  0  0
    7.6866    1.5230    0.0000 O   0  0  0  0  0  0  0  0  0  0  0  0
    2.2487    6.0889    0.0000 C   0  0  0  0  0  0  0  0  0  0  0  0
    0.7607    6.4028    0.0000 C   0  0  0  0  0  0  0  0  0  0  0  0
    0.0000    5.0835    0.0000 C   0  0  0  0  0  0  0  0  0  0  0  0
    1.0173    3.9498    0.0000 S   0  0  0  0  0  0  0  0  0  0  0  0
    2.4088    4.5690    0.0000 C   0  0  0  0  0  0  0  0  0  0  0  0
  1  2  1  0  0  0  0
  2  3  1  0  0  0  0
  3  4  1  0  0  0  0
  4  5  2  0  0  0  0
  5  6  1  0  0  0  0
  1  6  1  0  0  0  0
  6  7  2  0  0  0  0
  3  8  1  0  0  0  0
  2  9  2  0  0  0  0
 10 11  1  0  0  0  0
 11 12  2  0  0  0  0
 12 13  1  0  0  0  0
 13 14  1  0  0  0  0
 10 14  2  0  0  0  0
  5 14  1  0  0  0  0
A    8
R1
M  END

>  <symbol>
thien5z6U

>  <m_abbr>
thien5z6U

>  <m_type>
rna

>  <m_subtype>
natural

>  <m_RgroupIdx>
7

>  <m_Rgroups>
H

$$$$

MolEngine07221613482D

 11 11  0  0  0  0            999 V2000
    5.2778    3.8075    0.0000 N   0  0  0  0  0  0  0  0  0  0  0  0
    5.2778    2.2845    0.0000 C   0  0  0  0  0  0  0  0  0  0  0  0
    3.9629    1.5230    0.0000 N   0  0  0  0  0  0  0  0  0  0  0  0
    2.6394    2.2845    0.0000 C   0  0  0  0  0  0  0  0  0  0  0  0
    2.6379    3.8075    0.0000 C   0  0  0  0  0  0  0  0  0  0  0  0
    3.9629    4.5690    0.0000 C   0  0  0  0  0  0  0  0  0  0  0  0
    3.9629    6.0920    0.0000 O   0  0  0  0  0  0  0  0  0  0  0  0
    3.9629    0.0000    0.0000 R#  0  0  0  0  0  0  0  0  0  0  0  0
    6.5967    1.5230    0.0000 O   0  0  0  0  0  0  0  0  0  0  0  0
    1.3190    4.5690    0.0000 O   0  0  0  0  0  0  0  0  0  0  0  0
    0.0000    3.8075    0.0000 C   0  0  0  0  0  0  0  0  0  0  0  0
  1  2  1  0  0  0  0
  2  3  1  0  0  0  0
  3  4  1  0  0  0  0
  4  5  2  0  0  0  0
  5  6  1  0  0  0  0
  1  6  1  0  0  0  0
  6  7  2  0  0  0  0
  3  8  1  0  0  0  0
  2  9  2  0  0  0  0
  5 10  1  0  0  0  0
 10 11  1  0  0  0  0
A    8
R1
M  END

>  <symbol>
mo6U

>  <m_abbr>
mo6U

>  <m_type>
rna

>  <m_subtype>
natural

>  <m_RgroupIdx>
7

>  <m_Rgroups>
H

$$$$

MolEngine07221613482D

 10 10  0  0  0  0            999 V2000
    3.9588    3.8075    0.0000 N   0  0  0  0  0  0  0  0  0  0  0  0
    3.9588    2.2845    0.0000 C   0  0  0  0  0  0  0  0  0  0  0  0
    2.6439    1.5230    0.0000 N   0  0  0  0  0  0  0  0  0  0  0  0
    1.3189    2.2845    0.0000 C   0  0  0  0  0  0  0  0  0  0  0  0
    1.3189    3.8075    0.0000 C   0  0  0  0  0  0  0  0  0  0  0  0
    2.6439    4.5690    0.0000 C   0  0  0  0  0  0  0  0  0  0  0  0
    2.6439    6.0920    0.0000 O   0  0  0  0  0  0  0  0  0  0  0  0
    2.6439    0.0000    0.0000 R#  0  0  0  0  0  0  0  0  0  0  0  0
    5.2777    1.5230    0.0000 S   0  0  0  0  0  0  0  0  0  0  0  0
    0.0000    4.5690    0.0000 C   0  0  0  0  0  0  0  0  0  0  0  0
  1  2  1  0  0  0  0
  2  3  1  0  0  0  0
  3  4  1  0  0  0  0
  4  5  2  0  0  0  0
  5  6  1  0  0  0  0
  1  6  1  0  0  0  0
  6  7  2  0  0  0  0
  3  8  1  0  0  0  0
  2  9  2  0  0  0  0
  5 10  1  0  0  0  0
A    8
R1
M  END

>  <symbol>
s2T

>  <m_abbr>
s2T

>  <m_type>
rna

>  <m_subtype>
natural

>  <m_RgroupIdx>
7

>  <m_Rgroups>
H

$$$$

MolEngine07221613482D

 12 13  0  0  0  0            999 V2000
    4.9260    3.7962    0.0000 N   0  0  0  0  0  0  0  0  0  0  0  0
    4.9260    2.2790    0.0000 C   0  0  0  0  0  0  0  0  0  0  0  0
    3.6146    1.5177    0.0000 N   0  0  0  0  0  0  0  0  0  0  0  0
    2.2961    2.2790    0.0000 C   0  0  0  0  0  0  0  0  0  0  0  0
    2.2961    3.7962    0.0000 C   0  0  0  0  0  0  0  0  0  0  0  0
    3.6161    4.5548    0.0000 C   0  0  0  0  0  0  0  0  0  0  0  0
    3.6161    6.0725    0.0000 O   0  0  0  0  0  0  0  0  0  0  0  0
    3.6146    0.0000    0.0000 R#  0  0  0  0  0  0  0  0  0  0  0  0
    6.2404    1.5201    0.0000 O   0  0  0  0  0  0  0  0  0  0  0  0
    0.8294    4.1882    0.0000 C   0  0  0  0  0  0  0  0  0  0  0  0
    0.0000    2.9137    0.0000 C   0  0  0  0  0  0  0  0  0  0  0  0
    0.9533    1.7327    0.0000 C   0  0  0  0  0  0  0  0  0  0  0  0
  1  2  1  0  0  0  0
  2  3  1  0  0  0  0
  3  4  1  0  0  0  0
  4  5  2  0  0  0  0
  5  6  1  0  0  0  0
  1  6  1  0  0  0  0
  6  7  2  0  0  0  0
  3  8  1  0  0  0  0
  2  9  2  0  0  0  0
  5 10  1  0  0  0  0
 10 11  1  0  0  0  0
 11 12  1  0  0  0  0
  4 12  1  0  0  0  0
A    8
R1
M  END

>  <symbol>
pr56U

>  <m_abbr>
pr56U

>  <m_type>
rna

>  <m_subtype>
natural

>  <m_RgroupIdx>
7

>  <m_Rgroups>
H

$$$$

MolEngine07221613482D

 12 13  0  0  0  0            999 V2000
    4.9847    1.9260    0.0000 C   0  0  0  0  0  0  0  0  0  0  0  0
    3.6652    1.1623    0.0000 N   0  0  0  0  0  0  0  0  0  0  0  0
    2.3424    1.9260    0.0000 C   0  0  0  0  0  0  0  0  0  0  0  0
    2.3424    3.4478    0.0000 C   0  0  0  0  0  0  0  0  0  0  0  0
    3.6661    4.2074    0.0000 C   0  0  0  0  0  0  0  0  0  0  0  0
    4.9847    3.4478    0.0000 N   0  0  0  0  0  0  0  0  0  0  0  0
    0.8943    1.4484    0.0000 N   0  0  0  0  0  0  0  0  0  0  0  0
    0.0000    2.6856    0.0000 C   0  0  0  0  0  0  0  0  0  0  0  0
    0.8943    3.9127    0.0000 N   0  0  0  0  0  0  0  0  0  0  0  0
    3.6661    5.7304    0.0000 N   0  0  0  0  0  0  0  0  0  0  0  0
    6.3036    1.1645    0.0000 N   0  0  0  0  0  0  0  0  0  0  0  0
    0.4234    0.0000    0.0000 R#  0  0  0  0  0  0  0  0  0  0  0  0
  1  2  2  0  0  0  0
  2  3  1  0  0  0  0
  3  4  2  0  0  0  0
  4  5  1  0  0  0  0
  5  6  2  0  0  0  0
  1  6  1  0  0  0  0
  3  7  1  0  0  0  0
  7  8  1  0  0  0  0
  8  9  2  0  0  0  0
  4  9  1  0  0  0  0
  5 10  1  0  0  0  0
  1 11  1  0  0  0  0
  7 12  1  0  0  0  0
A   12
R1
M  END

>  <symbol>
n2A

>  <m_abbr>
n2A

>  <m_type>
rna

>  <m_subtype>
natural

>  <m_RgroupIdx>
11

>  <m_Rgroups>
H

$$$$

MolEngine07221613482D

 20 22  0  0  0  0            999 V2000
    3.9576    4.5723    0.0000 C   0  0  0  0  0  0  0  0  0  0  0  0
    2.6384    3.8113    0.0000 C   0  0  0  0  0  0  0  0  0  0  0  0
    2.6384    2.2866    0.0000 C   0  0  0  0  0  0  0  0  0  0  0  0
    3.9576    1.5230    0.0000 N   0  0  0  0  0  0  0  0  0  0  0  0
    5.2743    2.2866    0.0000 C   0  0  0  0  0  0  0  0  0  0  0  0
    5.2743    3.8113    0.0000 N   0  0  0  0  0  0  0  0  0  0  0  0
    6.5932    1.5251    0.0000 O   0  0  0  0  0  0  0  0  0  0  0  0
    3.9576    6.0945    0.0000 N   0  0  0  0  0  0  0  0  0  0  0  0
    2.6384    6.8556    0.0000 C   0  0  0  0  0  0  0  0  0  0  0  0
    1.3192    6.0945    0.0000 C   0  0  0  0  0  0  0  0  0  0  0  0
    1.3192    4.5723    0.0000 O   0  0  0  0  0  0  0  0  0  0  0  0
    2.6384    8.3777    0.0000 C   0  0  0  0  0  0  0  0  0  0  0  0
    1.3192    9.1388    0.0000 C   0  0  0  0  0  0  0  0  0  0  0  0
    0.0000    8.3777    0.0000 C   0  0  0  0  0  0  0  0  0  0  0  0
    0.0000    6.8556    0.0000 C   0  0  0  0  0  0  0  0  0  0  0  0
    3.9574    9.1392    0.0000 O   0  0  0  0  0  0  0  0  0  0  0  0
    5.2763    8.3777    0.0000 C   0  0  0  0  0  0  0  0  0  0  0  0
    6.5953    9.1392    0.0000 C   0  0  0  0  0  0  0  0  0  0  0  0
    7.9142    8.3777    0.0000 N   0  0  0  0  0  0  0  0  0  0  0  0
    3.9576    0.0000    0.0000 R#  0  0  0  0  0  0  0  0  0  0  0  0
  1  2  1  0  0  0  0
  2  3  2  0  0  0  0
  3  4  1  0  0  0  0
  4  5  1  0  0  0  0
  5  6  1  0  0  0  0
  1  6  2  0  0  0  0
  5  7  2  0  0  0  0
  1  8  1  0  0  0  0
  8  9  1  0  0  0  0
  9 10  2  0  0  0  0
 10 11  1  0  0  0  0
  2 11  1  0  0  0  0
  9 12  1  0  0  0  0
 12 13  2  0  0  0  0
 13 14  1  0  0  0  0
 14 15  2  0  0  0  0
 10 15  1  0  0  0  0
 16 17  1  0  0  0  0
 17 18  1  0  0  0  0
 18 19  1  0  0  0  0
 12 16  1  0  0  0  0
  4 20  1  0  0  0  0
A   20
R1
M  END

>  <symbol>
gclampC

>  <m_abbr>
gclampC

>  <m_type>
rna

>  <m_subtype>
natural

>  <m_RgroupIdx>
19

>  <m_Rgroups>
H

$$$$

MolEngine07221613482D

 10 10  0  0  0  0            999 V2000
    3.9588    3.8075    0.0000 N   0  0  0  0  0  0  0  0  0  0  0  0
    3.9588    2.2845    0.0000 C   0  0  0  0  0  0  0  0  0  0  0  0
    2.6439    1.5230    0.0000 N   0  0  0  0  0  0  0  0  0  0  0  0
    1.3189    2.2845    0.0000 C   0  0  0  0  0  0  0  0  0  0  0  0
    1.3189    3.8075    0.0000 C   0  0  0  0  0  0  0  0  0  0  0  0
    2.6439    4.5690    0.0000 C   0  0  0  0  0  0  0  0  0  0  0  0
    2.6439    6.0920    0.0000 N   0  0  0  0  0  0  0  0  0  0  0  0
    2.6439    0.0000    0.0000 R#  0  0  0  0  0  0  0  0  0  0  0  0
    5.2777    1.5230    0.0000 O   0  0  0  0  0  0  0  0  0  0  0  0
    0.0000    4.5690    0.0000 Br  0  0  0  0  0  0  0  0  0  0  0  0
  1  2  1  0  0  0  0
  2  3  1  0  0  0  0
  3  4  1  0  0  0  0
  4  5  2  0  0  0  0
  5  6  1  0  0  0  0
  1  6  2  0  0  0  0
  6  7  1  0  0  0  0
  3  8  1  0  0  0  0
  2  9  2  0  0  0  0
  5 10  1  0  0  0  0
A    8
R1
M  END

>  <symbol>
br5C

>  <m_abbr>
br5C

>  <m_type>
rna

>  <m_subtype>
natural

>  <m_RgroupIdx>
7

>  <m_Rgroups>
H

$$$$

MolEngine07221613482D

  9  9  0  0  0  0            999 V2000
    2.6000    3.7499    0.0000 N   0  0  0  0  0  0  0  0  0  0  0  0
    2.6000    2.2499    0.0000 C   0  0  0  0  0  0  0  0  0  0  0  0
    1.3050    1.5000    0.0000 N   0  0  0  0  0  0  0  0  0  0  0  0
    0.0000    2.2499    0.0000 N   0  0  0  0  0  0  0  0  0  0  0  0
    0.0000    3.7499    0.0000 C   0  0  0  0  0  0  0  0  0  0  0  0
    1.3050    4.4999    0.0000 C   0  0  0  0  0  0  0  0  0  0  0  0
    1.3050    5.9999    0.0000 N   0  0  0  0  0  0  0  0  0  0  0  0
    1.3050    0.0000    0.0000 R#  0  0  0  0  0  0  0  0  0  0  0  0
    3.8991    1.5000    0.0000 O   0  0  0  0  0  0  0  0  0  0  0  0
  1  2  1  0  0  0  0
  2  3  1  0  0  0  0
  3  4  1  0  0  0  0
  4  5  2  0  0  0  0
  5  6  1  0  0  0  0
  1  6  2  0  0  0  0
  6  7  1  0  0  0  0
  3  8  1  0  0  0  0
  2  9  2  0  0  0  0
A    8
R1
M  END

>  <symbol>
z5C

>  <m_abbr>
z5C

>  <m_type>
rna

>  <m_subtype>
natural

>  <m_RgroupIdx>
7

>  <m_Rgroups>
H

$$$$

MolEngine07221613482D

 10 10  0  0  0  0            999 V2000
    3.9182    3.7499    0.0000 N   0  0  0  0  0  0  0  0  0  0  0  0
    3.9182    2.2499    0.0000 C   0  0  0  0  0  0  0  0  0  0  0  0
    2.6232    1.5000    0.0000 N   0  0  0  0  0  0  0  0  0  0  0  0
    1.3182    2.2499    0.0000 N   0  0  0  0  0  0  0  0  0  0  0  0
    1.3182    3.7499    0.0000 C   0  0  0  0  0  0  0  0  0  0  0  0
    2.6232    4.4999    0.0000 C   0  0  0  0  0  0  0  0  0  0  0  0
    2.6232    5.9999    0.0000 O   0  0  0  0  0  0  0  0  0  0  0  0
    2.6232    0.0000    0.0000 R#  0  0  0  0  0  0  0  0  0  0  0  0
    5.2173    1.5000    0.0000 O   0  0  0  0  0  0  0  0  0  0  0  0
    0.0000    4.5127    0.0000 C   0  0  0  0  0  0  0  0  0  0  0  0
  1  2  1  0  0  0  0
  2  3  1  0  0  0  0
  3  4  1  0  0  0  0
  4  5  2  0  0  0  0
  5  6  1  0  0  0  0
  1  6  1  0  0  0  0
  6  7  2  0  0  0  0
  3  8  1  0  0  0  0
  2  9  2  0  0  0  0
  5 10  1  0  0  0  0
A    8
R1
M  END

>  <symbol>
z5T

>  <m_abbr>
z5T

>  <m_type>
rna

>  <m_subtype>
natural

>  <m_RgroupIdx>
7

>  <m_Rgroups>
H

$$$$

MolEngine07221613482D

 23 25  0  0  0  0            999 V2000
    3.9599    0.0000    0.0000 R#  0  0  0  0  0  0  0  0  0  0  0  0
    5.2746    3.7997    0.0000 N   0  0  0  0  0  0  0  0  0  0  0  0
    5.2746    2.2805    0.0000 C   0  0  0  0  0  0  0  0  0  0  0  0
    3.9599    1.5230    0.0000 N   0  0  0  0  0  0  0  0  0  0  0  0
    2.6453    2.2805    0.0000 C   0  0  0  0  0  0  0  0  0  0  0  0
    2.6453    3.7997    0.0000 C   0  0  0  0  0  0  0  0  0  0  0  0
    3.9599    4.5612    0.0000 C   0  0  0  0  0  0  0  0  0  0  0  0
    6.5936    1.5190    0.0000 O   0  0  0  0  0  0  0  0  0  0  0  0
    3.9599    6.0842    0.0000 N   0  0  0  0  0  0  0  0  0  0  0  0
    2.6453    6.8458    0.0000 C   0  0  0  0  0  0  0  0  0  0  0  0
    1.3226    6.0842    0.0000 C   0  0  0  0  0  0  0  0  0  0  0  0
    1.3226    4.5612    0.0000 O   0  0  0  0  0  0  0  0  0  0  0  0
    2.6453    8.3689    0.0000 C   0  0  0  0  0  0  0  0  0  0  0  0
    1.3226    9.1304    0.0000 C   0  0  0  0  0  0  0  0  0  0  0  0
    0.0000    8.3689    0.0000 C   0  0  0  0  0  0  0  0  0  0  0  0
    0.0000    6.8458    0.0000 C   0  0  0  0  0  0  0  0  0  0  0  0
    3.9643    9.1304    0.0000 O   0  0  0  0  0  0  0  0  0  0  0  0
    5.2832    8.3689    0.0000 C   0  0  0  0  0  0  0  0  0  0  0  0
    6.6022    9.1304    0.0000 C   0  0  0  0  0  0  0  0  0  0  0  0
    7.9211    8.3689    0.0000 N   0  0  0  0  0  0  0  0  0  0  0  0
    9.2401    9.1304    0.0000 C   0  0  0  0  0  0  0  0  0  0  0  0
   10.5590    8.3689    0.0000 N   0  0  0  0  0  0  0  0  0  0  0  0
    9.2401   10.6534    0.0000 N   0  0  0  0  0  0  0  0  0  0  0  0
  2  3  1  0  0  0  0
  3  4  1  0  0  0  0
  4  5  1  0  0  0  0
  5  6  2  0  0  0  0
  6  7  1  0  0  0  0
  2  7  2  0  0  0  0
  3  8  2  0  0  0  0
  1  4  1  0  0  0  0
  7  9  1  0  0  0  0
  9 10  1  0  0  0  0
 10 11  2  0  0  0  0
 11 12  1  0  0  0  0
  6 12  1  0  0  0  0
 10 13  1  0  0  0  0
 13 14  2  0  0  0  0
 14 15  1  0  0  0  0
 15 16  2  0  0  0  0
 11 16  1  0  0  0  0
 13 17  1  0  0  0  0
 17 18  1  0  0  0  0
 18 19  1  0  0  0  0
 19 20  1  0  0  0  0
 20 21  1  0  0  0  0
 21 22  1  0  0  0  0
 21 23  2  0  0  0  0
A    1
R1
M  END

>  <symbol>
ggclampC

>  <m_abbr>
ggclampC

>  <m_type>
rna

>  <m_subtype>
natural

>  <m_RgroupIdx>
0

>  <m_Rgroups>
H

$$$$

MolEngine07221613482D

 12 13  0  0  0  0            999 V2000
    4.9655    3.4283    0.0000 N   0  0  0  0  0  0  0  0  0  0  0  0
    4.9655    1.9106    0.0000 C   0  0  0  0  0  0  0  0  0  0  0  0
    3.6537    1.1491    0.0000 C   0  0  0  0  0  0  0  0  0  0  0  0
    2.3348    1.9106    0.0000 C   0  0  0  0  0  0  0  0  0  0  0  0
    2.3348    3.4283    0.0000 C   0  0  0  0  0  0  0  0  0  0  0  0
    3.6552    4.1872    0.0000 C   0  0  0  0  0  0  0  0  0  0  0  0
    0.0000    2.6695    0.0000 N   0  0  0  0  0  0  0  0  0  0  0  0
    0.8930    3.9039    0.0000 N   0  0  0  0  0  0  0  0  0  0  0  0
    3.6552    5.7049    0.0000 O   0  0  0  0  0  0  0  0  0  0  0  0
    6.2799    1.1518    0.0000 N   0  0  0  0  0  0  0  0  0  0  0  0
    0.8930    1.4427    0.0000 N   0  0  0  0  0  0  0  0  0  0  0  0
    0.4215    0.0000    0.0000 R#  0  0  0  0  0  0  0  0  0  0  0  0
  1  2  1  0  0  0  0
  2  3  2  0  0  0  0
  3  4  1  0  0  0  0
  4  5  2  0  0  0  0
  5  6  1  0  0  0  0
  1  6  1  0  0  0  0
  7  8  2  0  0  0  0
  5  8  1  0  0  0  0
  6  9  2  0  0  0  0
  2 10  1  0  0  0  0
  4 11  1  0  0  0  0
  7 11  1  0  0  0  0
 11 12  1  0  0  0  0
A   12
R1
M  END

>  <symbol>
z8c3G

>  <m_abbr>
z8c3G

>  <m_type>
rna

>  <m_subtype>
natural

>  <m_RgroupIdx>
11

>  <m_Rgroups>
H

$$$$

MolEngine07221613482D

 16 18  0  0  0  0            999 V2000
    3.9599    0.0000    0.0000 R#  0  0  0  0  0  0  0  0  0  0  0  0
    5.2746    3.7997    0.0000 N   0  0  0  0  0  0  0  0  0  0  0  0
    5.2746    2.2805    0.0000 C   0  0  0  0  0  0  0  0  0  0  0  0
    3.9599    1.5230    0.0000 N   0  0  0  0  0  0  0  0  0  0  0  0
    2.6453    2.2805    0.0000 C   0  0  0  0  0  0  0  0  0  0  0  0
    2.6453    3.7997    0.0000 C   0  0  0  0  0  0  0  0  0  0  0  0
    3.9599    4.5612    0.0000 C   0  0  0  0  0  0  0  0  0  0  0  0
    6.5936    1.5190    0.0000 O   0  0  0  0  0  0  0  0  0  0  0  0
    3.9599    6.0842    0.0000 N   0  0  0  0  0  0  0  0  0  0  0  0
    2.6453    6.8458    0.0000 C   0  0  0  0  0  0  0  0  0  0  0  0
    1.3226    6.0842    0.0000 C   0  0  0  0  0  0  0  0  0  0  0  0
    1.3226    4.5612    0.0000 O   0  0  0  0  0  0  0  0  0  0  0  0
    2.6453    8.3689    0.0000 C   0  0  0  0  0  0  0  0  0  0  0  0
    1.3226    9.1304    0.0000 C   0  0  0  0  0  0  0  0  0  0  0  0
    0.0000    8.3689    0.0000 C   0  0  0  0  0  0  0  0  0  0  0  0
    0.0000    6.8458    0.0000 C   0  0  0  0  0  0  0  0  0  0  0  0
  2  3  1  0  0  0  0
  3  4  1  0  0  0  0
  4  5  1  0  0  0  0
  5  6  2  0  0  0  0
  6  7  1  0  0  0  0
  2  7  2  0  0  0  0
  3  8  2  0  0  0  0
  1  4  1  0  0  0  0
  7  9  1  0  0  0  0
  9 10  1  0  0  0  0
 10 11  2  0  0  0  0
 11 12  1  0  0  0  0
  6 12  1  0  0  0  0
 10 13  1  0  0  0  0
 13 14  2  0  0  0  0
 14 15  1  0  0  0  0
 15 16  2  0  0  0  0
 11 16  1  0  0  0  0
A    1
R1
M  END

>  <symbol>
phoxC

>  <m_abbr>
phoxC

>  <m_type>
rna

>  <m_subtype>
natural

>  <m_RgroupIdx>
0

>  <m_Rgroups>
H

$$$$

MolEngine07221613482D

  9  9  0  0  0  0            999 V2000
    2.6000    3.7499    0.0000 N   0  0  0  0  0  0  0  0  0  0  0  0
    2.6000    2.2499    0.0000 C   0  0  0  0  0  0  0  0  0  0  0  0
    1.3050    1.5000    0.0000 N   0  0  0  0  0  0  0  0  0  0  0  0
    0.0000    2.2499    0.0000 C   0  0  0  0  0  0  0  0  0  0  0  0
    0.0000    3.7499    0.0000 C   0  0  0  0  0  0  0  0  0  0  0  0
    1.3050    4.4999    0.0000 C   0  0  0  0  0  0  0  0  0  0  0  0
    1.3050    5.9999    0.0000 O   0  0  0  0  0  0  0  0  0  0  0  0
    1.3050    0.0000    0.0000 R#  0  0  0  0  0  0  0  0  0  0  0  0
    3.8991    1.5000    0.0000 S   0  0  0  0  0  0  0  0  0  0  0  0
  1  2  1  0  0  0  0
  2  3  1  0  0  0  0
  3  4  1  0  0  0  0
  4  5  2  0  0  0  0
  5  6  1  0  0  0  0
  1  6  1  0  0  0  0
  6  7  2  0  0  0  0
  3  8  1  0  0  0  0
  2  9  2  0  0  0  0
A    8
R1
M  END

>  <symbol>
s2U

>  <m_abbr>
s2U

>  <m_type>
rna

>  <m_subtype>
natural

>  <m_RgroupIdx>
7

>  <m_Rgroups>
H

$$$$

MolEngine07221613482D

 12 13  0  0  0  0            999 V2000
    4.9828    3.4403    0.0000 N   0  0  0  0  0  0  0  0  0  0  0  0
    4.9828    1.9173    0.0000 C   0  0  0  0  0  0  0  0  0  0  0  0
    3.6664    1.1531    0.0000 N   0  0  0  0  0  0  0  0  0  0  0  0
    2.3429    1.9173    0.0000 C   0  0  0  0  0  0  0  0  0  0  0  0
    2.3429    3.4403    0.0000 C   0  0  0  0  0  0  0  0  0  0  0  0
    3.6679    4.2018    0.0000 C   0  0  0  0  0  0  0  0  0  0  0  0
    0.0000    2.6788    0.0000 C   0  0  0  0  0  0  0  0  0  0  0  0
    0.8961    3.9175    0.0000 N   0  0  0  0  0  0  0  0  0  0  0  0
    3.6679    5.7248    0.0000 N   0  0  0  0  0  0  0  0  0  0  0  0
    0.8961    1.4477    0.0000 N   0  0  0  0  0  0  0  0  0  0  0  0
    0.4229    0.0000    0.0000 R#  0  0  0  0  0  0  0  0  0  0  0  0
    6.3017    1.1558    0.0000 Cl  0  0  0  0  0  0  0  0  0  0  0  0
  1  2  1  0  0  0  0
  2  3  2  0  0  0  0
  3  4  1  0  0  0  0
  4  5  2  0  0  0  0
  5  6  1  0  0  0  0
  1  6  2  0  0  0  0
  7  8  2  0  0  0  0
  5  8  1  0  0  0  0
  6  9  1  0  0  0  0
  4 10  1  0  0  0  0
  7 10  1  0  0  0  0
 10 11  1  0  0  0  0
  2 12  1  0  0  0  0
A   11
R1
M  END

>  <symbol>
cl3A

>  <m_abbr>
cl3A

>  <m_type>
rna

>  <m_subtype>
natural

>  <m_RgroupIdx>
10

>  <m_Rgroups>
H

$$$$

MolEngine07221613482D

 12 13  0  0  0  0            999 V2000
    4.9828    3.4404    0.0000 N   0  0  0  0  0  0  0  0  0  0  0  0
    4.9840    1.9152    0.0000 C   0  0  0  0  0  0  0  0  0  0  0  0
    3.6679    1.1559    0.0000 C   0  0  0  0  0  0  0  0  0  0  0  0
    2.3429    1.9174    0.0000 C   0  0  0  0  0  0  0  0  0  0  0  0
    2.3429    3.4404    0.0000 C   0  0  0  0  0  0  0  0  0  0  0  0
    3.6679    4.2019    0.0000 C   0  0  0  0  0  0  0  0  0  0  0  0
    0.0000    2.6789    0.0000 C   0  0  0  0  0  0  0  0  0  0  0  0
    0.8960    3.9176    0.0000 N   0  0  0  0  0  0  0  0  0  0  0  0
    3.6679    5.7249    0.0000 O   0  0  0  0  0  0  0  0  0  0  0  0
    6.3030    1.1537    0.0000 N   0  0  0  0  0  0  0  0  0  0  0  0
    0.8960    1.4478    0.0000 N   0  0  0  0  0  0  0  0  0  0  0  0
    0.4234    0.0000    0.0000 R#  0  0  0  0  0  0  0  0  0  0  0  0
  1  2  1  0  0  0  0
  2  3  2  0  0  0  0
  3  4  1  0  0  0  0
  4  5  2  0  0  0  0
  5  6  1  0  0  0  0
  1  6  1  0  0  0  0
  7  8  2  0  0  0  0
  5  8  1  0  0  0  0
  6  9  2  0  0  0  0
  2 10  1  0  0  0  0
  4 11  1  0  0  0  0
  7 11  1  0  0  0  0
 11 12  1  0  0  0  0
A   12
R1
M  END

>  <symbol>
c3G

>  <m_abbr>
c3G

>  <m_type>
rna

>  <m_subtype>
natural

>  <m_RgroupIdx>
11

>  <m_Rgroups>
H

$$$$

MolEngine07221613482D

 15 16  0  0  0  0            999 V2000
    4.9811    6.1020    0.0000 N   0  0  0  0  0  0  0  0  0  0  0  0
    4.9823    4.5774    0.0000 C   0  0  0  0  0  0  0  0  0  0  0  0
    3.6667    3.8183    0.0000 C   0  0  0  0  0  0  0  0  0  0  0  0
    2.3421    4.5796    0.0000 C   0  0  0  0  0  0  0  0  0  0  0  0
    2.3421    6.1020    0.0000 C   0  0  0  0  0  0  0  0  0  0  0  0
    3.6667    6.8633    0.0000 C   0  0  0  0  0  0  0  0  0  0  0  0
    0.0000    5.3408    0.0000 C   0  0  0  0  0  0  0  0  0  0  0  0
    0.8957    6.5791    0.0000 N   0  0  0  0  0  0  0  0  0  0  0  0
    3.6667    8.3858    0.0000 O   0  0  0  0  0  0  0  0  0  0  0  0
    6.3008    3.8161    0.0000 N   0  0  0  0  0  0  0  0  0  0  0  0
    0.8957    4.1101    0.0000 N   0  0  0  0  0  0  0  0  0  0  0  0
    0.4232    2.6628    0.0000 R#  0  0  0  0  0  0  0  0  0  0  0  0
    3.6679    2.2905    0.0000 C   0  0  0  0  0  0  0  0  0  0  0  0
    4.9917    1.5277    0.0000 C   0  0  0  0  0  0  0  0  0  0  0  0
    4.9929    0.0000    0.0000 C   0  0  0  0  0  0  0  0  0  0  0  0
  1  2  1  0  0  0  0
  2  3  2  0  0  0  0
  3  4  1  0  0  0  0
  4  5  2  0  0  0  0
  5  6  1  0  0  0  0
  1  6  1  0  0  0  0
  7  8  2  0  0  0  0
  5  8  1  0  0  0  0
  6  9  2  0  0  0  0
  2 10  1  0  0  0  0
  4 11  1  0  0  0  0
  7 11  1  0  0  0  0
 11 12  1  0  0  0  0
  3 13  1  0  0  0  0
 13 14  1  0  0  0  0
 14 15  2  0  0  0  0
A   12
R1
M  END

>  <symbol>
c3allyl3G

>  <m_abbr>
c3allyl3G

>  <m_type>
rna

>  <m_subtype>
natural

>  <m_RgroupIdx>
11

>  <m_Rgroups>
H

$$$$

MolEngine07221613482D

 13 14  0  0  0  0            999 V2000
    4.9683    3.9182    0.0000 N   0  0  0  0  0  0  0  0  0  0  0  0
    4.9956    2.3955    0.0000 C   0  0  0  0  0  0  0  0  0  0  0  0
    3.6946    1.6105    0.0000 N   0  0  0  0  0  0  0  0  0  0  0  0
    2.3561    2.3481    0.0000 C   0  0  0  0  0  0  0  0  0  0  0  0
    2.3288    3.8709    0.0000 C   0  0  0  0  0  0  0  0  0  0  0  0
    3.6400    4.6560    0.0000 C   0  0  0  0  0  0  0  0  0  0  0  0
    0.0000    3.0675    0.0000 C   0  0  0  0  0  0  0  0  0  0  0  0
    0.8736    4.3221    0.0000 C   0  0  0  0  0  0  0  0  0  0  0  0
    3.6152    6.1788    0.0000 O   0  0  0  0  0  0  0  0  0  0  0  0
    6.3285    1.6587    0.0000 N   0  0  0  0  0  0  0  0  0  0  0  0
    0.9179    1.8527    0.0000 N   0  0  0  0  0  0  0  0  0  0  0  0
    0.3873    0.0000    0.0000 R#  0  0  0  0  0  0  0  0  0  0  0  0
    0.3788    5.7624    0.0000 C   0  0  0  0  0  0  0  0  0  0  0  0
  1  2  1  0  0  0  0
  2  3  2  0  0  0  0
  3  4  1  0  0  0  0
  4  5  2  0  0  0  0
  5  6  1  0  0  0  0
  1  6  1  0  0  0  0
  7  8  2  0  0  0  0
  5  8  1  0  0  0  0
  6  9  2  0  0  0  0
  2 10  1  0  0  0  0
  4 11  1  0  0  0  0
  7 11  1  0  0  0  0
 11 12  1  0  0  0  0
  8 13  1  0  0  0  0
A   12
R1
M  END

>  <symbol>
c7m7G

>  <m_abbr>
c7m7G

>  <m_type>
rna

>  <m_subtype>
natural

>  <m_RgroupIdx>
11

>  <m_Rgroups>
H

$$$$

MolEngine07221613482D

  9  9  0  0  0  0            999 V2000
    2.6000    3.7499    0.0000 N   0  0  0  0  0  0  0  0  0  0  0  0
    2.6000    2.2499    0.0000 C   0  0  0  0  0  0  0  0  0  0  0  0
    1.3050    1.5000    0.0000 C   0  0  0  0  0  0  0  0  0  0  0  0
    0.0000    2.2499    0.0000 C   0  0  0  0  0  0  0  0  0  0  0  0
    0.0000    3.7499    0.0000 N   0  0  0  0  0  0  0  0  0  0  0  0
    1.3050    4.4999    0.0000 C   0  0  0  0  0  0  0  0  0  0  0  0
    1.3050    5.9999    0.0000 O   0  0  0  0  0  0  0  0  0  0  0  0
    1.3050    0.0000    0.0000 R#  0  0  0  0  0  0  0  0  0  0  0  0
    3.8991    1.5000    0.0000 O   0  0  0  0  0  0  0  0  0  0  0  0
  1  2  1  0  0  0  0
  2  3  1  0  0  0  0
  3  4  2  0  0  0  0
  4  5  1  0  0  0  0
  5  6  1  0  0  0  0
  1  6  1  0  0  0  0
  6  7  2  0  0  0  0
  3  8  1  0  0  0  0
  2  9  2  0  0  0  0
A    8
R1
M  END

>  <symbol>
psi

>  <m_abbr>
psi

>  <m_type>
rna

>  <m_subtype>
natural

>  <m_RgroupIdx>
7

>  <m_Rgroups>
H

$$$$

MolEngine07221613482D

 13 14  0  0  0  0            999 V2000
    4.9813    3.4572    0.0000 N   0  0  0  0  0  0  0  0  0  0  0  0
    4.9813    1.9347    0.0000 C   0  0  0  0  0  0  0  0  0  0  0  0
    3.6668    1.1734    0.0000 N   0  0  0  0  0  0  0  0  0  0  0  0
    2.3422    1.9347    0.0000 C   0  0  0  0  0  0  0  0  0  0  0  0
    2.3422    3.4572    0.0000 C   0  0  0  0  0  0  0  0  0  0  0  0
    3.6668    4.2185    0.0000 C   0  0  0  0  0  0  0  0  0  0  0  0
    0.0000    2.6960    0.0000 C   0  0  0  0  0  0  0  0  0  0  0  0
    0.8787    3.9399    0.0000 C   0  0  0  0  0  0  0  0  0  0  0  0
    3.6668    5.7410    0.0000 O   0  0  0  0  0  0  0  0  0  0  0  0
    6.3084    1.1734    0.0000 N   0  0  0  0  0  0  0  0  0  0  0  0
    0.8958    1.4652    0.0000 N   0  0  0  0  0  0  0  0  0  0  0  0
    0.4201    0.0000    0.0000 R#  0  0  0  0  0  0  0  0  0  0  0  0
    0.4044    5.4056    0.0000 I   0  0  0  0  0  0  0  0  0  0  0  0
  1  2  1  0  0  0  0
  2  3  2  0  0  0  0
  3  4  1  0  0  0  0
  4  5  2  0  0  0  0
  5  6  1  0  0  0  0
  1  6  1  0  0  0  0
  7  8  2  0  0  0  0
  5  8  1  0  0  0  0
  6  9  2  0  0  0  0
  2 10  1  0  0  0  0
  4 11  1  0  0  0  0
  7 11  1  0  0  0  0
 11 12  1  0  0  0  0
  8 13  1  0  0  0  0
A   12
R1
M  END

>  <symbol>
c7io7G

>  <m_abbr>
c7io7G

>  <m_type>
rna

>  <m_subtype>
natural

>  <m_RgroupIdx>
11

>  <m_Rgroups>
H

$$$$

MolEngine07221613482D

 13 14  0  0  0  0            999 V2000
    4.9812    3.4573    0.0000 N   0  0  0  0  0  0  0  0  0  0  0  0
    4.9812    1.9348    0.0000 C   0  0  0  0  0  0  0  0  0  0  0  0
    3.6668    1.1735    0.0000 N   0  0  0  0  0  0  0  0  0  0  0  0
    2.3421    1.9348    0.0000 C   0  0  0  0  0  0  0  0  0  0  0  0
    2.3421    3.4573    0.0000 C   0  0  0  0  0  0  0  0  0  0  0  0
    3.6668    4.2186    0.0000 C   0  0  0  0  0  0  0  0  0  0  0  0
    0.0000    2.6960    0.0000 C   0  0  0  0  0  0  0  0  0  0  0  0
    0.8787    3.9400    0.0000 C   0  0  0  0  0  0  0  0  0  0  0  0
    3.6668    5.7411    0.0000 N   0  0  0  0  0  0  0  0  0  0  0  0
    6.3084    1.1735    0.0000 N   0  0  0  0  0  0  0  0  0  0  0  0
    0.8957    1.4653    0.0000 N   0  0  0  0  0  0  0  0  0  0  0  0
    0.4201    0.0000    0.0000 R#  0  0  0  0  0  0  0  0  0  0  0  0
    0.4043    5.4057    0.0000 I   0  0  0  0  0  0  0  0  0  0  0  0
  1  2  1  0  0  0  0
  2  3  2  0  0  0  0
  3  4  1  0  0  0  0
  4  5  2  0  0  0  0
  5  6  1  0  0  0  0
  1  6  2  0  0  0  0
  7  8  2  0  0  0  0
  5  8  1  0  0  0  0
  6  9  1  0  0  0  0
  2 10  1  0  0  0  0
  4 11  1  0  0  0  0
  7 11  1  0  0  0  0
 11 12  1  0  0  0  0
  8 13  1  0  0  0  0
A   12
R1
M  END

>  <symbol>
c7io7n2A

>  <m_abbr>
c7io7n2A

>  <m_type>
rna

>  <m_subtype>
natural

>  <m_RgroupIdx>
11

>  <m_Rgroups>
H

$$$$

MolEngine07221613482D

 15 16  0  0  0  0            999 V2000
    5.5796    3.5269    0.0000 N   0  0  0  0  0  0  0  0  0  0  0  0
    5.6132    2.0096    0.0000 C   0  0  0  0  0  0  0  0  0  0  0  0
    4.3201    1.2219    0.0000 N   0  0  0  0  0  0  0  0  0  0  0  0
    2.9832    1.9513    0.0000 C   0  0  0  0  0  0  0  0  0  0  0  0
    2.9496    3.4686    0.0000 C   0  0  0  0  0  0  0  0  0  0  0  0
    4.2528    4.2565    0.0000 C   0  0  0  0  0  0  0  0  0  0  0  0
    0.6322    2.6582    0.0000 C   0  0  0  0  0  0  0  0  0  0  0  0
    1.4976    3.9121    0.0000 C   0  0  0  0  0  0  0  0  0  0  0  0
    4.2217    5.7739    0.0000 N   0  0  0  0  0  0  0  0  0  0  0  0
    1.5521    1.4515    0.0000 N   0  0  0  0  0  0  0  0  0  0  0  0
    1.1087    0.0000    0.0000 R#  0  0  0  0  0  0  0  0  0  0  0  0
    0.9984    5.3454    0.0000 C   0  0  0  0  0  0  0  0  0  0  0  0
    0.4992    6.7787    0.0000 C   0  0  0  0  0  0  0  0  0  0  0  0
    0.0000    8.2119    0.0000 C   0  0  0  0  0  0  0  0  0  0  0  0
    6.9446    1.2809    0.0000 N   0  0  0  0  0  0  0  0  0  0  0  0
  1  2  1  0  0  0  0
  2  3  2  0  0  0  0
  3  4  1  0  0  0  0
  4  5  2  0  0  0  0
  5  6  1  0  0  0  0
  1  6  2  0  0  0  0
  7  8  2  0  0  0  0
  5  8  1  0  0  0  0
  6  9  1  0  0  0  0
  4 10  1  0  0  0  0
  7 10  1  0  0  0  0
 10 11  1  0  0  0  0
  8 12  1  0  0  0  0
 12 13  3  0  0  0  0
 13 14  1  0  0  0  0
  2 15  1  0  0  0  0
A   11
R1
M  END

>  <symbol>
c7pry7n2A

>  <m_abbr>
c7pry7n2A

>  <m_type>
rna

>  <m_subtype>
natural

>  <m_RgroupIdx>
10

>  <m_Rgroups>
H

$$$$

MolEngine07221613482D

 16 16  0  0  0  0            999 V2000
   11.8726    3.8087    0.0000 N   0  0  0  0  0  0  0  0  0  0  0  0
   11.8741    2.2857    0.0000 C   0  0  0  0  0  0  0  0  0  0  0  0
   10.5600    1.5229    0.0000 N   0  0  0  0  0  0  0  0  0  0  0  0
    9.2342    2.2831    0.0000 C   0  0  0  0  0  0  0  0  0  0  0  0
    9.2327    3.8061    0.0000 C   0  0  0  0  0  0  0  0  0  0  0  0
   10.5570    4.5689    0.0000 C   0  0  0  0  0  0  0  0  0  0  0  0
   10.5570    6.0919    0.0000 N   0  0  0  0  0  0  0  0  0  0  0  0
   10.5600    0.0000    0.0000 R#  0  0  0  0  0  0  0  0  0  0  0  0
   13.1930    1.5242    0.0000 O   0  0  0  0  0  0  0  0  0  0  0  0
    7.9137    4.5676    0.0000 C   0  0  0  0  0  0  0  0  0  0  0  0
    6.5948    3.8061    0.0000 C   0  0  0  0  0  0  0  0  0  0  0  0
    5.2758    4.5676    0.0000 C   0  0  0  0  0  0  0  0  0  0  0  0
    3.9569    3.8061    0.0000 C   0  0  0  0  0  0  0  0  0  0  0  0
    2.6379    4.5676    0.0000 C   0  0  0  0  0  0  0  0  0  0  0  0
    1.3190    3.8061    0.0000 C   0  0  0  0  0  0  0  0  0  0  0  0
    0.0000    4.5676    0.0000 N   0  0  0  0  0  0  0  0  0  0  0  0
  1  2  1  0  0  0  0
  2  3  1  0  0  0  0
  3  4  1  0  0  0  0
  4  5  2  0  0  0  0
  5  6  1  0  0  0  0
  1  6  2  0  0  0  0
  6  7  1  0  0  0  0
  3  8  1  0  0  0  0
  2  9  2  0  0  0  0
  5 10  1  0  0  0  0
 10 11  1  0  0  0  0
 11 12  1  0  0  0  0
 12 13  1  0  0  0  0
 13 14  1  0  0  0  0
 14 15  1  0  0  0  0
 15 16  1  0  0  0  0
A    8
R1
M  END

>  <symbol>
nC65C

>  <m_abbr>
nC65C

>  <m_type>
rna

>  <m_subtype>
natural

>  <m_RgroupIdx>
7

>  <m_Rgroups>
H

$$$$

MolEngine07221613482D

 12 12  0  0  0  0            999 V2000
    5.3164    3.8234    0.0000 N   0  0  0  0  0  0  0  0  0  0  0  0
    5.3351    2.3005    0.0000 C   0  0  0  0  0  0  0  0  0  0  0  0
    4.0297    1.5229    0.0000 N   0  0  0  0  0  0  0  0  0  0  0  0
    2.6955    2.2680    0.0000 C   0  0  0  0  0  0  0  0  0  0  0  0
    2.6767    3.7909    0.0000 C   0  0  0  0  0  0  0  0  0  0  0  0
    3.9923    4.5687    0.0000 C   0  0  0  0  0  0  0  0  0  0  0  0
    3.9761    6.0916    0.0000 O   0  0  0  0  0  0  0  0  0  0  0  0
    4.0510    0.0000    0.0000 R#  0  0  0  0  0  0  0  0  0  0  0  0
    6.6638    1.5561    0.0000 O   0  0  0  0  0  0  0  0  0  0  0  0
    1.3493    4.5375    0.0000 C   0  0  0  0  0  0  0  0  0  0  0  0
    1.3321    6.0604    0.0000 C   0  0  0  0  0  0  0  0  0  0  0  0
    0.0000    6.8095    0.0000 Br  0  0  0  0  0  0  0  0  0  0  0  0
  1  2  1  0  0  0  0
  2  3  1  0  0  0  0
  3  4  1  0  0  0  0
  4  5  2  0  0  0  0
  5  6  1  0  0  0  0
  1  6  1  0  0  0  0
  6  7  2  0  0  0  0
  3  8  1  0  0  0  0
  2  9  2  0  0  0  0
  5 10  1  0  0  0  0
 10 11  2  0  0  0  0
 11 12  1  0  0  0  0
A    8
R1
M  END

>  <symbol>
brvinyl5U

>  <m_abbr>
brvinyl5U

>  <m_type>
rna

>  <m_subtype>
natural

>  <m_RgroupIdx>
7

>  <m_Rgroups>
H

$$$$

MolEngine07221613482D

 12 12  0  0  0  0            999 V2000
    5.2820    3.8234    0.0000 N   0  0  0  0  0  0  0  0  0  0  0  0
    5.3007    2.3005    0.0000 C   0  0  0  0  0  0  0  0  0  0  0  0
    3.9953    1.5229    0.0000 N   0  0  0  0  0  0  0  0  0  0  0  0
    2.6611    2.2680    0.0000 C   0  0  0  0  0  0  0  0  0  0  0  0
    2.6424    3.7909    0.0000 C   0  0  0  0  0  0  0  0  0  0  0  0
    3.9579    4.5686    0.0000 C   0  0  0  0  0  0  0  0  0  0  0  0
    3.9417    6.0915    0.0000 O   0  0  0  0  0  0  0  0  0  0  0  0
    4.0166    0.0000    0.0000 R#  0  0  0  0  0  0  0  0  0  0  0  0
    6.6294    1.5561    0.0000 O   0  0  0  0  0  0  0  0  0  0  0  0
    1.3149    4.5375    0.0000 C   0  0  0  0  0  0  0  0  0  0  0  0
    1.2977    6.0604    0.0000 C   0  0  0  0  0  0  0  0  0  0  0  0
    0.0000    3.7584    0.0000 C   0  0  0  0  0  0  0  0  0  0  0  0
  1  2  1  0  0  0  0
  2  3  1  0  0  0  0
  3  4  1  0  0  0  0
  4  5  2  0  0  0  0
  5  6  1  0  0  0  0
  1  6  1  0  0  0  0
  6  7  2  0  0  0  0
  3  8  1  0  0  0  0
  2  9  2  0  0  0  0
  5 10  1  0  0  0  0
 10 11  1  0  0  0  0
 10 12  1  0  0  0  0
A    8
R1
M  END

>  <symbol>
ipr5U

>  <m_abbr>
ipr5U

>  <m_type>
rna

>  <m_subtype>
natural

>  <m_RgroupIdx>
7

>  <m_Rgroups>
H

$$$$

MolEngine07221613482D

 11 11  0  0  0  0            999 V2000
    5.2595    3.7982    0.0000 N   0  0  0  0  0  0  0  0  0  0  0  0
    5.2610    2.2805    0.0000 C   0  0  0  0  0  0  0  0  0  0  0  0
    3.9500    1.5177    0.0000 N   0  0  0  0  0  0  0  0  0  0  0  0
    2.6303    2.2779    0.0000 C   0  0  0  0  0  0  0  0  0  0  0  0
    2.6288    3.7956    0.0000 C   0  0  0  0  0  0  0  0  0  0  0  0
    3.9485    4.5558    0.0000 C   0  0  0  0  0  0  0  0  0  0  0  0
    3.9485    6.0735    0.0000 O   0  0  0  0  0  0  0  0  0  0  0  0
    3.9500    0.0000    0.0000 R#  0  0  0  0  0  0  0  0  0  0  0  0
    6.5754    1.5217    0.0000 O   0  0  0  0  0  0  0  0  0  0  0  0
    1.3144    4.5545    0.0000 C   0  0  0  0  0  0  0  0  0  0  0  0
    0.0000    3.7956    0.0000 C   0  0  0  0  0  0  0  0  0  0  0  0
  1  2  1  0  0  0  0
  2  3  1  0  0  0  0
  3  4  1  0  0  0  0
  4  5  2  0  0  0  0
  5  6  1  0  0  0  0
  1  6  1  0  0  0  0
  6  7  2  0  0  0  0
  3  8  1  0  0  0  0
  2  9  2  0  0  0  0
  5 10  1  0  0  0  0
 10 11  1  0  0  0  0
A    8
R1
M  END

>  <symbol>
e5U

>  <m_abbr>
e5U

>  <m_type>
rna

>  <m_subtype>
natural

>  <m_RgroupIdx>
7

>  <m_Rgroups>
H

$$$$

MolEngine07221613482D

 13 14  0  0  0  0            999 V2000
    5.0477    3.4821    0.0000 N   0  0  0  0  0  0  0  0  0  0  0  0
    5.0662    1.9645    0.0000 C   0  0  0  0  0  0  0  0  0  0  0  0
    3.7652    1.1898    0.0000 N   0  0  0  0  0  0  0  0  0  0  0  0
    2.4357    1.9325    0.0000 C   0  0  0  0  0  0  0  0  0  0  0  0
    2.4172    3.4501    0.0000 C   0  0  0  0  0  0  0  0  0  0  0  0
    3.7283    4.2250    0.0000 C   0  0  0  0  0  0  0  0  0  0  0  0
    0.0919    2.6629    0.0000 C   0  0  0  0  0  0  0  0  0  0  0  0
    0.9697    3.9081    0.0000 C   0  0  0  0  0  0  0  0  0  0  0  0
    3.7123    5.7426    0.0000 N   0  0  0  0  0  0  0  0  0  0  0  0
    0.9997    1.4470    0.0000 N   0  0  0  0  0  0  0  0  0  0  0  0
    0.5418    0.0000    0.0000 R#  0  0  0  0  0  0  0  0  0  0  0  0
    0.4849    5.3463    0.0000 C   0  0  0  0  0  0  0  0  0  0  0  0
    0.0000    6.7844    0.0000 N   0  0  0  0  0  0  0  0  0  0  0  0
  1  2  1  0  0  0  0
  2  3  2  0  0  0  0
  3  4  1  0  0  0  0
  4  5  2  0  0  0  0
  5  6  1  0  0  0  0
  1  6  2  0  0  0  0
  7  8  2  0  0  0  0
  5  8  1  0  0  0  0
  6  9  1  0  0  0  0
  4 10  1  0  0  0  0
  7 10  1  0  0  0  0
 10 11  1  0  0  0  0
  8 12  1  0  0  0  0
 12 13  3  0  0  0  0
A   11
R1
M  END

>  <symbol>
c7cn7A

>  <m_abbr>
c7cn7A

>  <m_type>
rna

>  <m_subtype>
natural

>  <m_RgroupIdx>
10

>  <m_Rgroups>
H

$$$$

MolEngine07221613482D

 10 10  0  0  0  0            999 V2000
    3.9451    3.7943    0.0000 N   0  0  0  0  0  0  0  0  0  0  0  0
    3.9451    2.2766    0.0000 C   0  0  0  0  0  0  0  0  0  0  0  0
    2.6348    1.5177    0.0000 N   0  0  0  0  0  0  0  0  0  0  0  0
    1.3144    2.2766    0.0000 C   0  0  0  0  0  0  0  0  0  0  0  0
    1.3144    3.7943    0.0000 C   0  0  0  0  0  0  0  0  0  0  0  0
    2.6348    4.5531    0.0000 C   0  0  0  0  0  0  0  0  0  0  0  0
    2.6348    6.0709    0.0000 N   0  0  0  0  0  0  0  0  0  0  0  0
    2.6348    0.0000    0.0000 R#  0  0  0  0  0  0  0  0  0  0  0  0
    5.2594    1.5177    0.0000 O   0  0  0  0  0  0  0  0  0  0  0  0
    0.0000    4.5531    0.0000 I   0  0  0  0  0  0  0  0  0  0  0  0
  1  2  1  0  0  0  0
  2  3  1  0  0  0  0
  3  4  1  0  0  0  0
  4  5  2  0  0  0  0
  5  6  1  0  0  0  0
  1  6  2  0  0  0  0
  6  7  1  0  0  0  0
  3  8  1  0  0  0  0
  2  9  2  0  0  0  0
  5 10  1  0  0  0  0
A    8
R1
M  END

>  <symbol>
io5C

>  <m_abbr>
io5C

>  <m_type>
rna

>  <m_subtype>
natural

>  <m_RgroupIdx>
7

>  <m_Rgroups>
H

$$$$

MolEngine07221613482D

 15 16  0  0  0  0            999 V2000
    7.5140    1.8964    0.0000 C   0  0  0  0  0  0  0  0  0  0  0  0
    8.8168    1.1434    0.0000 C   0  0  0  0  0  0  0  0  0  0  0  0
   10.1156    1.8964    0.0000 N   0  0  0  0  0  0  0  0  0  0  0  0
    4.9124    3.3983    0.0000 N   0  0  0  0  0  0  0  0  0  0  0  0
    4.9124    1.8964    0.0000 C   0  0  0  0  0  0  0  0  0  0  0  0
    3.6136    1.1434    0.0000 N   0  0  0  0  0  0  0  0  0  0  0  0
    2.3108    1.8964    0.0000 C   0  0  0  0  0  0  0  0  0  0  0  0
    2.3108    3.3983    0.0000 C   0  0  0  0  0  0  0  0  0  0  0  0
    3.6136    4.1473    0.0000 C   0  0  0  0  0  0  0  0  0  0  0  0
    0.8845    1.4302    0.0000 N   0  0  0  0  0  0  0  0  0  0  0  0
    0.0000    2.6453    0.0000 C   0  0  0  0  0  0  0  0  0  0  0  0
    0.8845    3.8605    0.0000 N   0  0  0  0  0  0  0  0  0  0  0  0
    3.6136    5.6494    0.0000 N   0  0  0  0  0  0  0  0  0  0  0  0
    6.2152    1.1434    0.0000 N   0  0  0  0  0  0  0  0  0  0  0  0
    0.4183    0.0000    0.0000 R#  0  0  0  0  0  0  0  0  0  0  0  0
  1  2  1  0  0  0  0
  2  3  1  0  0  0  0
  4  5  1  0  0  0  0
  5  6  2  0  0  0  0
  6  7  1  0  0  0  0
  7  8  2  0  0  0  0
  8  9  1  0  0  0  0
  4  9  2  0  0  0  0
  7 10  1  0  0  0  0
 10 11  1  0  0  0  0
 11 12  2  0  0  0  0
  8 12  1  0  0  0  0
  9 13  1  0  0  0  0
  5 14  1  0  0  0  0
 10 15  1  0  0  0  0
  1 14  1  0  0  0  0
A   15
R1
M  END

>  <symbol>
nen2A

>  <m_abbr>
nen2A

>  <m_type>
rna

>  <m_subtype>
natural

>  <m_RgroupIdx>
14

>  <m_Rgroups>
H

$$$$

MolEngine07221613482D

 12 12  0  0  0  0            999 V2000
    6.5738    3.7943    0.0000 N   0  0  0  0  0  0  0  0  0  0  0  0
    6.5738    2.2766    0.0000 C   0  0  0  0  0  0  0  0  0  0  0  0
    5.2635    1.5177    0.0000 N   0  0  0  0  0  0  0  0  0  0  0  0
    3.9446    2.2766    0.0000 N   0  0  0  0  0  0  0  0  0  0  0  0
    3.9431    3.7943    0.0000 C   0  0  0  0  0  0  0  0  0  0  0  0
    5.2635    4.5531    0.0000 C   0  0  0  0  0  0  0  0  0  0  0  0
    5.2635    6.0709    0.0000 O   0  0  0  0  0  0  0  0  0  0  0  0
    5.2635    0.0000    0.0000 R#  0  0  0  0  0  0  0  0  0  0  0  0
    7.8882    1.5177    0.0000 O   0  0  0  0  0  0  0  0  0  0  0  0
    2.6287    4.5531    0.0000 C   0  0  0  0  0  0  0  0  0  0  0  0
    1.3143    5.3120    0.0000 C   0  0  0  0  0  0  0  0  0  0  0  0
    0.0000    6.0709    0.0000 C   0  0  0  0  0  0  0  0  0  0  0  0
  1  2  1  0  0  0  0
  2  3  1  0  0  0  0
  3  4  1  0  0  0  0
  4  5  2  0  0  0  0
  5  6  1  0  0  0  0
  1  6  1  0  0  0  0
  6  7  2  0  0  0  0
  3  8  1  0  0  0  0
  2  9  2  0  0  0  0
  5 10  1  0  0  0  0
 10 11  3  0  0  0  0
 11 12  1  0  0  0  0
A    8
R1
M  END

>  <symbol>
n6pry5U

>  <m_abbr>
n6pry5U

>  <m_type>
rna

>  <m_subtype>
natural

>  <m_RgroupIdx>
7

>  <m_Rgroups>
H

$$$$

MolEngine07221613482D

 12 13  0  0  0  0            999 V2000
    4.9732    3.4942    0.0000 N   0  0  0  0  0  0  0  0  0  0  0  0
    4.9917    1.9713    0.0000 C   0  0  0  0  0  0  0  0  0  0  0  0
    3.6862    1.1939    0.0000 N   0  0  0  0  0  0  0  0  0  0  0  0
    2.3520    1.9392    0.0000 C   0  0  0  0  0  0  0  0  0  0  0  0
    2.3335    3.4621    0.0000 C   0  0  0  0  0  0  0  0  0  0  0  0
    3.6491    4.2396    0.0000 C   0  0  0  0  0  0  0  0  0  0  0  0
    0.0000    2.6721    0.0000 C   0  0  0  0  0  0  0  0  0  0  0  0
    0.8809    3.9217    0.0000 C   0  0  0  0  0  0  0  0  0  0  0  0
    3.6331    5.7626    0.0000 N   0  0  0  0  0  0  0  0  0  0  0  0
    0.9110    1.4520    0.0000 N   0  0  0  0  0  0  0  0  0  0  0  0
    0.4516    0.0000    0.0000 R#  0  0  0  0  0  0  0  0  0  0  0  0
    0.3944    5.3648    0.0000 I   0  0  0  0  0  0  0  0  0  0  0  0
  1  2  1  0  0  0  0
  2  3  2  0  0  0  0
  3  4  1  0  0  0  0
  4  5  2  0  0  0  0
  5  6  1  0  0  0  0
  1  6  2  0  0  0  0
  7  8  2  0  0  0  0
  5  8  1  0  0  0  0
  6  9  1  0  0  0  0
  4 10  1  0  0  0  0
  7 10  1  0  0  0  0
 10 11  1  0  0  0  0
  8 12  1  0  0  0  0
A   11
R1
M  END

>  <symbol>
c7io7A

>  <m_abbr>
c7io7A

>  <m_type>
rna

>  <m_subtype>
natural

>  <m_RgroupIdx>
10

>  <m_Rgroups>
H

$$$$

MolEngine07221613482D

 14 15  0  0  0  0            999 V2000
    5.5796    3.5269    0.0000 N   0  0  0  0  0  0  0  0  0  0  0  0
    5.6132    2.0096    0.0000 C   0  0  0  0  0  0  0  0  0  0  0  0
    4.3201    1.2219    0.0000 N   0  0  0  0  0  0  0  0  0  0  0  0
    2.9832    1.9513    0.0000 C   0  0  0  0  0  0  0  0  0  0  0  0
    2.9496    3.4686    0.0000 C   0  0  0  0  0  0  0  0  0  0  0  0
    4.2528    4.2565    0.0000 C   0  0  0  0  0  0  0  0  0  0  0  0
    0.6322    2.6582    0.0000 C   0  0  0  0  0  0  0  0  0  0  0  0
    1.4976    3.9121    0.0000 C   0  0  0  0  0  0  0  0  0  0  0  0
    4.2217    5.7739    0.0000 N   0  0  0  0  0  0  0  0  0  0  0  0
    1.5521    1.4515    0.0000 N   0  0  0  0  0  0  0  0  0  0  0  0
    1.1087    0.0000    0.0000 R#  0  0  0  0  0  0  0  0  0  0  0  0
    0.9984    5.3454    0.0000 C   0  0  0  0  0  0  0  0  0  0  0  0
    0.4992    6.7787    0.0000 C   0  0  0  0  0  0  0  0  0  0  0  0
    0.0000    8.2119    0.0000 C   0  0  0  0  0  0  0  0  0  0  0  0
  1  2  1  0  0  0  0
  2  3  2  0  0  0  0
  3  4  1  0  0  0  0
  4  5  2  0  0  0  0
  5  6  1  0  0  0  0
  1  6  2  0  0  0  0
  7  8  2  0  0  0  0
  5  8  1  0  0  0  0
  6  9  1  0  0  0  0
  4 10  1  0  0  0  0
  7 10  1  0  0  0  0
 10 11  1  0  0  0  0
  8 12  1  0  0  0  0
 12 13  3  0  0  0  0
 13 14  1  0  0  0  0
A   11
R1
M  END

>  <symbol>
n7pry7A

>  <m_abbr>
n7pry7A

>  <m_type>
rna

>  <m_subtype>
natural

>  <m_RgroupIdx>
10

>  <m_Rgroups>
H

$$$$

MolEngine07221613482D

 20 22  0  0  0  0            999 V2000
    4.9816    4.1249    0.0000 N   0  0  0  0  0  0  0  0  0  0  0  0
    4.9816    2.6019    0.0000 C   0  0  0  0  0  0  0  0  0  0  0  0
    3.6626    1.8404    0.0000 N   0  0  0  0  0  0  0  0  0  0  0  0
    2.3437    2.6019    0.0000 C   0  0  0  0  0  0  0  0  0  0  0  0
    2.3437    4.1249    0.0000 C   0  0  0  0  0  0  0  0  0  0  0  0
    3.6626    4.8864    0.0000 C   0  0  0  0  0  0  0  0  0  0  0  0
    3.6626    6.4094    0.0000 N   0  0  0  0  0  0  0  0  0  0  0  0
    0.8952    2.1312    0.0000 N   0  0  0  0  0  0  0  0  0  0  0  0
    0.0000    3.3634    0.0000 C   0  0  0  0  0  0  0  0  0  0  0  0
    0.8952    4.5955    0.0000 N   0  0  0  0  0  0  0  0  0  0  0  0
    0.4246    0.6828    0.0000 R#  0  0  0  0  0  0  0  0  0  0  0  0
    6.3005    1.8404    0.0000 N   0  0  0  0  0  0  0  0  0  0  0  0
    7.6195    2.6019    0.0000 C   0  0  0  0  0  0  0  0  0  0  0  0
    8.9384    1.8404    0.0000 C   0  0  0  0  0  0  0  0  0  0  0  0
   10.2574    2.6019    0.0000 C   0  0  0  0  0  0  0  0  0  0  0  0
   11.5810    1.8377    0.0000 N   0  0  0  0  0  0  0  0  0  0  0  0
   11.7407    0.3178    0.0000 C   0  0  0  0  0  0  0  0  0  0  0  0
   13.2356    0.0000    0.0000 N   0  0  0  0  0  0  0  0  0  0  0  0
   13.9998    1.3236    0.0000 C   0  0  0  0  0  0  0  0  0  0  0  0
   12.9771    2.4593    0.0000 C   0  0  0  0  0  0  0  0  0  0  0  0
  1  2  2  0  0  0  0
  2  3  1  0  0  0  0
  3  4  2  0  0  0  0
  4  5  1  0  0  0  0
  5  6  2  0  0  0  0
  6  7  1  0  0  0  0
  1  6  1  0  0  0  0
  4  8  1  0  0  0  0
  8  9  1  0  0  0  0
  9 10  2  0  0  0  0
  5 10  1  0  0  0  0
  8 11  1  0  0  0  0
  2 12  1  0  0  0  0
 12 13  1  0  0  0  0
 13 14  1  0  0  0  0
 15 14  1  0  0  0  0
 15 16  1  0  0  0  0
 16 17  1  0  0  0  0
 17 18  2  0  0  0  0
 18 19  1  0  0  0  0
 19 20  2  0  0  0  0
 20 16  1  0  0  0  0
A   11
R1
M  END

>  <symbol>
imprn2A

>  <m_abbr>
imprn2A

>  <m_type>
rna

>  <m_subtype>
natural

>  <m_RgroupIdx>
10

>  <m_Rgroups>
H

$$$$

MolEngine07221613482D

 19 21  0  0  0  0            999 V2000
    4.9655    3.4282    0.0000 N   0  0  0  0  0  0  0  0  0  0  0  0
    4.9655    1.9105    0.0000 C   0  0  0  0  0  0  0  0  0  0  0  0
    3.6537    1.1491    0.0000 N   0  0  0  0  0  0  0  0  0  0  0  0
    2.3348    1.9105    0.0000 C   0  0  0  0  0  0  0  0  0  0  0  0
    2.3348    3.4282    0.0000 C   0  0  0  0  0  0  0  0  0  0  0  0
    3.6552    4.1871    0.0000 C   0  0  0  0  0  0  0  0  0  0  0  0
    0.0000    2.6694    0.0000 C   0  0  0  0  0  0  0  0  0  0  0  0
    0.8929    3.9038    0.0000 N   0  0  0  0  0  0  0  0  0  0  0  0
    3.6552    5.7048    0.0000 O   0  0  0  0  0  0  0  0  0  0  0  0
    6.2798    1.1517    0.0000 N   0  0  0  0  0  0  0  0  0  0  0  0
    0.8929    1.4426    0.0000 N   0  0  0  0  0  0  0  0  0  0  0  0
    0.4214    0.0000    0.0000 R#  0  0  0  0  0  0  0  0  0  0  0  0
    7.5942    1.9105    0.0000 C   0  0  0  0  0  0  0  0  0  0  0  0
    8.9086    1.1517    0.0000 C   0  0  0  0  0  0  0  0  0  0  0  0
   10.2230    1.9105    0.0000 C   0  0  0  0  0  0  0  0  0  0  0  0
   11.6087    1.2916    0.0000 N   0  0  0  0  0  0  0  0  0  0  0  0
   12.6243    2.4199    0.0000 C   0  0  0  0  0  0  0  0  0  0  0  0
   11.8676    3.7320    0.0000 N   0  0  0  0  0  0  0  0  0  0  0  0
   10.3793    3.4147    0.0000 C   0  0  0  0  0  0  0  0  0  0  0  0
  1  2  1  0  0  0  0
  2  3  2  0  0  0  0
  3  4  1  0  0  0  0
  4  5  2  0  0  0  0
  5  6  1  0  0  0  0
  1  6  1  0  0  0  0
  7  8  2  0  0  0  0
  5  8  1  0  0  0  0
  6  9  2  0  0  0  0
  2 10  1  0  0  0  0
  4 11  1  0  0  0  0
  7 11  1  0  0  0  0
 11 12  1  0  0  0  0
 10 13  1  0  0  0  0
 13 14  1  0  0  0  0
 15 16  1  0  0  0  0
 16 17  2  0  0  0  0
 17 18  1  0  0  0  0
 15 19  2  0  0  0  0
 14 15  1  0  0  0  0
 18 19  1  0  0  0  0
A   12
R1
M  END

>  <symbol>
4imen2G

>  <m_abbr>
4imen2G

>  <m_type>
rna

>  <m_subtype>
natural

>  <m_RgroupIdx>
11

>  <m_Rgroups>
H

$$$$

MolEngine07221613482D

 20 22  0  0  0  0            999 V2000
    4.9655    4.1015    0.0000 N   0  0  0  0  0  0  0  0  0  0  0  0
    4.9655    2.5838    0.0000 C   0  0  0  0  0  0  0  0  0  0  0  0
    3.6537    1.8223    0.0000 N   0  0  0  0  0  0  0  0  0  0  0  0
    2.3348    2.5838    0.0000 C   0  0  0  0  0  0  0  0  0  0  0  0
    2.3348    4.1015    0.0000 C   0  0  0  0  0  0  0  0  0  0  0  0
    3.6552    4.8603    0.0000 C   0  0  0  0  0  0  0  0  0  0  0  0
    0.0000    3.3426    0.0000 C   0  0  0  0  0  0  0  0  0  0  0  0
    0.8929    4.5770    0.0000 N   0  0  0  0  0  0  0  0  0  0  0  0
    3.6552    6.3780    0.0000 O   0  0  0  0  0  0  0  0  0  0  0  0
    6.2798    1.8249    0.0000 N   0  0  0  0  0  0  0  0  0  0  0  0
    0.8929    2.1158    0.0000 N   0  0  0  0  0  0  0  0  0  0  0  0
    0.4214    0.6732    0.0000 R#  0  0  0  0  0  0  0  0  0  0  0  0
   11.5373    1.8249    0.0000 N   0  0  0  0  0  0  0  0  0  0  0  0
   11.6942    0.3153    0.0000 C   0  0  0  0  0  0  0  0  0  0  0  0
   13.1791    0.0000    0.0000 N   0  0  0  0  0  0  0  0  0  0  0  0
   13.9371    1.3113    0.0000 C   0  0  0  0  0  0  0  0  0  0  0  0
   12.9182    2.4416    0.0000 C   0  0  0  0  0  0  0  0  0  0  0  0
    7.5942    2.5838    0.0000 C   0  0  0  0  0  0  0  0  0  0  0  0
    8.9086    1.8249    0.0000 C   0  0  0  0  0  0  0  0  0  0  0  0
   10.2230    2.5838    0.0000 C   0  0  0  0  0  0  0  0  0  0  0  0
  1  2  1  0  0  0  0
  2  3  2  0  0  0  0
  3  4  1  0  0  0  0
  4  5  2  0  0  0  0
  5  6  1  0  0  0  0
  1  6  1  0  0  0  0
  7  8  2  0  0  0  0
  5  8  1  0  0  0  0
  6  9  2  0  0  0  0
  2 10  1  0  0  0  0
  4 11  1  0  0  0  0
  7 11  1  0  0  0  0
 11 12  1  0  0  0  0
 13 14  1  0  0  0  0
 14 15  2  0  0  0  0
 15 16  1  0  0  0  0
 16 17  2  0  0  0  0
 13 17  1  0  0  0  0
 10 18  1  0  0  0  0
 18 19  1  0  0  0  0
 19 20  1  0  0  0  0
 13 20  1  0  0  0  0
A   12
R1
M  END

>  <symbol>
impr2G

>  <m_abbr>
impr2G

>  <m_type>
rna

>  <m_subtype>
natural

>  <m_RgroupIdx>
11

>  <m_Rgroups>
H

$$$$

MolEngine07221613482D

 20 22  0  0  0  0            999 V2000
    4.9541    3.4915    0.0000 N   0  0  0  0  0  0  0  0  0  0  0  0
    4.9758    1.9739    0.0000 C   0  0  0  0  0  0  0  0  0  0  0  0
    3.6764    1.1964    0.0000 N   0  0  0  0  0  0  0  0  0  0  0  0
    2.3453    1.9364    0.0000 C   0  0  0  0  0  0  0  0  0  0  0  0
    2.3237    3.4539    0.0000 C   0  0  0  0  0  0  0  0  0  0  0  0
    3.6332    4.2316    0.0000 C   0  0  0  0  0  0  0  0  0  0  0  0
    0.0000    2.6619    0.0000 C   0  0  0  0  0  0  0  0  0  0  0  0
    0.8753    3.9089    0.0000 N   0  0  0  0  0  0  0  0  0  0  0  0
    3.6141    5.7491    0.0000 N   0  0  0  0  0  0  0  0  0  0  0  0
    0.9103    1.4479    0.0000 N   0  0  0  0  0  0  0  0  0  0  0  0
    0.4555    0.0000    0.0000 R#  0  0  0  0  0  0  0  0  0  0  0  0
    6.3013    1.2347    0.0000 N   0  0  0  0  0  0  0  0  0  0  0  0
    4.9188    6.5245    0.0000 C   0  0  0  0  0  0  0  0  0  0  0  0
    6.2426    5.7822    0.0000 C   0  0  0  0  0  0  0  0  0  0  0  0
    7.5473    6.5576    0.0000 C   0  0  0  0  0  0  0  0  0  0  0  0
    8.8711    5.8153    0.0000 N   0  0  0  0  0  0  0  0  0  0  0  0
    9.0491    4.3052    0.0000 C   0  0  0  0  0  0  0  0  0  0  0  0
   10.5377    4.0099    0.0000 N   0  0  0  0  0  0  0  0  0  0  0  0
   11.2782    5.3348    0.0000 C   0  0  0  0  0  0  0  0  0  0  0  0
   10.2461    6.4484    0.0000 C   0  0  0  0  0  0  0  0  0  0  0  0
  1  2  1  0  0  0  0
  2  3  2  0  0  0  0
  3  4  1  0  0  0  0
  4  5  2  0  0  0  0
  5  6  1  0  0  0  0
  1  6  2  0  0  0  0
  7  8  2  0  0  0  0
  5  8  1  0  0  0  0
  6  9  1  0  0  0  0
  4 10  1  0  0  0  0
  7 10  1  0  0  0  0
 10 11  1  0  0  0  0
  2 12  1  0  0  0  0
  9 13  1  0  0  0  0
 13 14  1  0  0  0  0
 14 15  1  0  0  0  0
 15 16  1  0  0  0  0
 16 17  1  0  0  0  0
 17 18  2  0  0  0  0
 18 19  1  0  0  0  0
 19 20  2  0  0  0  0
 16 20  1  0  0  0  0
A   11
R1
M  END

>  <symbol>
impr6n2A

>  <m_abbr>
impr6n2A

>  <m_type>
rna

>  <m_subtype>
natural

>  <m_RgroupIdx>
10

>  <m_Rgroups>
H

$$$$

MolEngine07221613482D

 18 20  0  0  0  0            999 V2000
    5.1683    2.4379    0.0000 N   0  0  0  0  0  0  0  0  0  0  0  0
    4.8582    0.9468    0.0000 C   0  0  0  0  0  0  0  0  0  0  0  0
    3.4159    0.4689    0.0000 N   0  0  0  0  0  0  0  0  0  0  0  0
    2.2736    1.4842    0.0000 C   0  0  0  0  0  0  0  0  0  0  0  0
    2.5837    2.9753    0.0000 C   0  0  0  0  0  0  0  0  0  0  0  0
    4.0360    3.4511    0.0000 C   0  0  0  0  0  0  0  0  0  0  0  0
    0.1349    2.7067    0.0000 C   0  0  0  0  0  0  0  0  0  0  0  0
    1.2643    3.7371    0.0000 N   0  0  0  0  0  0  0  0  0  0  0  0
    4.3485    4.9417    0.0000 N   0  0  0  0  0  0  0  0  0  0  0  0
    0.7615    1.3190    0.0000 N   0  0  0  0  0  0  0  0  0  0  0  0
    0.0000    0.0000    0.0000 R#  0  0  0  0  0  0  0  0  0  0  0  0
    5.7956    5.4164    0.0000 C   0  0  0  0  0  0  0  0  0  0  0  0
    6.9303    4.4004    0.0000 C   0  0  0  0  0  0  0  0  0  0  0  0
    8.3774    4.8750    0.0000 C   0  0  0  0  0  0  0  0  0  0  0  0
    9.6114    3.9815    0.0000 N   0  0  0  0  0  0  0  0  0  0  0  0
   10.8420    4.8783    0.0000 C   0  0  0  0  0  0  0  0  0  0  0  0
   10.3685    6.3258    0.0000 N   0  0  0  0  0  0  0  0  0  0  0  0
    8.8409    6.3207    0.0000 C   0  0  0  0  0  0  0  0  0  0  0  0
  1  2  1  0  0  0  0
  2  3  2  0  0  0  0
  3  4  1  0  0  0  0
  4  5  2  0  0  0  0
  5  6  1  0  0  0  0
  1  6  2  0  0  0  0
  7  8  2  0  0  0  0
  5  8  1  0  0  0  0
  6  9  1  0  0  0  0
  4 10  1  0  0  0  0
  7 10  1  0  0  0  0
 10 11  1  0  0  0  0
  9 12  1  0  0  0  0
 12 13  1  0  0  0  0
 13 14  1  0  0  0  0
 14 15  1  0  0  0  0
 15 16  2  0  0  0  0
 16 17  1  0  0  0  0
 14 18  2  0  0  0  0
 17 18  1  0  0  0  0
A   11
R1
M  END

>  <symbol>
4ime6A

>  <m_abbr>
4ime6A

>  <m_type>
rna

>  <m_subtype>
natural

>  <m_RgroupIdx>
10

>  <m_Rgroups>
H

$$$$

MolEngine07221613482D

 16 17  0  0  0  0            999 V2000
    2.3054    6.8614    0.0000 C   0  0  0  0  0  0  0  0  0  0  0  0
    2.3054    5.3633    0.0000 C   0  0  0  0  0  0  0  0  0  0  0  0
    3.7241    4.5158    0.0000 N   0  0  0  0  0  0  0  0  0  0  0  0
    5.0120    5.3120    0.0000 C   0  0  0  0  0  0  0  0  0  0  0  0
    4.9685    6.8290    0.0000 N   0  0  0  0  0  0  0  0  0  0  0  0
    3.6370    7.5474    0.0000 C   0  0  0  0  0  0  0  0  0  0  0  0
    3.6370    9.0652    0.0000 O   0  0  0  0  0  0  0  0  0  0  0  0
    6.3264    4.5531    0.0000 N   0  0  0  0  0  0  0  0  0  0  0  0
    6.3264    3.0354    0.0000 C   0  0  0  0  0  0  0  0  0  0  0  0
    7.6408    2.2765    0.0000 C   0  0  0  0  0  0  0  0  0  0  0  0
    7.6408    0.7588    0.0000 C   0  0  0  0  0  0  0  0  0  0  0  0
    8.9552    0.0000    0.0000 N   0  0  0  0  0  0  0  0  0  0  0  0
    0.8806    7.3243    0.0000 N   0  0  0  0  0  0  0  0  0  0  0  0
    0.0000    6.1123    0.0000 C   0  0  0  0  0  0  0  0  0  0  0  0
    0.8806    4.9004    0.0000 N   0  0  0  0  0  0  0  0  0  0  0  0
    0.4100    3.4519    0.0000 R#  0  0  0  0  0  0  0  0  0  0  0  0
  2  1  2  0  0  0  0
  2  3  1  0  0  0  0
  3  4  2  0  0  0  0
  4  5  1  0  0  0  0
  5  6  1  0  0  0  0
  1  6  1  0  0  0  0
  6  7  2  0  0  0  0
  4  8  1  0  0  0  0
  8  9  1  0  0  0  0
  9 10  1  0  0  0  0
 10 11  1  0  0  0  0
 11 12  1  0  0  0  0
  1 13  1  0  0  0  0
 13 14  2  0  0  0  0
 14 15  1  0  0  0  0
 15  2  1  0  0  0  0
 15 16  1  0  0  0  0
A   16
R1
M  END

>  <symbol>
npr2G

>  <m_abbr>
npr2G

>  <m_type>
rna

>  <m_subtype>
natural

>  <m_RgroupIdx>
15

>  <m_Rgroups>
H

$$$$

MolEngine07221613482D

 17 17  0  0  0  0            999 V2000
   13.1961    3.8088    0.0000 N   0  0  0  0  0  0  0  0  0  0  0  0
   13.1976    2.2858    0.0000 C   0  0  0  0  0  0  0  0  0  0  0  0
   11.8835    1.5230    0.0000 N   0  0  0  0  0  0  0  0  0  0  0  0
   10.5577    2.2832    0.0000 C   0  0  0  0  0  0  0  0  0  0  0  0
   10.5562    3.8062    0.0000 C   0  0  0  0  0  0  0  0  0  0  0  0
   11.8805    4.5690    0.0000 C   0  0  0  0  0  0  0  0  0  0  0  0
   11.8805    6.0920    0.0000 O   0  0  0  0  0  0  0  0  0  0  0  0
   11.8835    0.0000    0.0000 R#  0  0  0  0  0  0  0  0  0  0  0  0
   14.5166    1.5243    0.0000 O   0  0  0  0  0  0  0  0  0  0  0  0
    9.2373    4.5677    0.0000 C   0  0  0  0  0  0  0  0  0  0  0  0
    7.9183    3.8062    0.0000 C   0  0  0  0  0  0  0  0  0  0  0  0
    6.5994    4.5677    0.0000 C   0  0  0  0  0  0  0  0  0  0  0  0
    5.2804    3.8062    0.0000 C   0  0  0  0  0  0  0  0  0  0  0  0
    3.9615    4.5677    0.0000 C   0  0  0  0  0  0  0  0  0  0  0  0
    2.6425    3.8062    0.0000 C   0  0  0  0  0  0  0  0  0  0  0  0
    1.3235    4.5677    0.0000 N   0  0  0  0  0  0  0  0  0  0  0  0
    0.0000    3.8035    0.0000 R#  0  0  0  0  0  0  0  0  0  0  0  0
  1  2  1  0  0  0  0
  2  3  1  0  0  0  0
  3  4  1  0  0  0  0
  4  5  2  0  0  0  0
  5  6  1  0  0  0  0
  1  6  1  0  0  0  0
  6  7  2  0  0  0  0
  3  8  1  0  0  0  0
  2  9  2  0  0  0  0
  5 10  1  0  0  0  0
 10 11  1  0  0  0  0
 11 12  1  0  0  0  0
 12 13  1  0  0  0  0
 13 14  1  0  0  0  0
 14 15  1  0  0  0  0
 15 16  1  0  0  0  0
 16 17  1  0  0  0  0
A    8
R1
A   17
R2
M  END

>  <symbol>
nC65U

>  <m_abbr>
nC65U

>  <m_type>
rna

>  <m_subtype>
natural

>  <m_RgroupIdx>
7,16

>  <m_Rgroups>
H,H

$$$$

MolEngine07221613482D

 15 16  0  0  0  0            999 V2000
    4.9827    3.4402    0.0000 N   0  0  0  0  0  0  0  0  0  0  0  0
    4.9827    1.9172    0.0000 C   0  0  0  0  0  0  0  0  0  0  0  0
    3.6664    1.1531    0.0000 N   0  0  0  0  0  0  0  0  0  0  0  0
    2.3429    1.9172    0.0000 C   0  0  0  0  0  0  0  0  0  0  0  0
    2.3429    3.4402    0.0000 C   0  0  0  0  0  0  0  0  0  0  0  0
    3.6679    4.2017    0.0000 C   0  0  0  0  0  0  0  0  0  0  0  0
    0.0000    2.6787    0.0000 C   0  0  0  0  0  0  0  0  0  0  0  0
    0.8960    3.9174    0.0000 N   0  0  0  0  0  0  0  0  0  0  0  0
    3.6679    5.7247    0.0000 O   0  0  0  0  0  0  0  0  0  0  0  0
    6.3017    1.1557    0.0000 N   0  0  0  0  0  0  0  0  0  0  0  0
    0.8960    1.4476    0.0000 N   0  0  0  0  0  0  0  0  0  0  0  0
    0.4229    0.0000    0.0000 R#  0  0  0  0  0  0  0  0  0  0  0  0
    7.6207    1.9172    0.0000 C   0  0  0  0  0  0  0  0  0  0  0  0
    8.9396    1.1557    0.0000 C   0  0  0  0  0  0  0  0  0  0  0  0
   10.2585    1.9172    0.0000 N   0  0  0  0  0  0  0  0  0  0  0  0
  1  2  1  0  0  0  0
  2  3  2  0  0  0  0
  3  4  1  0  0  0  0
  4  5  2  0  0  0  0
  5  6  1  0  0  0  0
  1  6  1  0  0  0  0
  7  8  2  0  0  0  0
  5  8  1  0  0  0  0
  6  9  2  0  0  0  0
  2 10  1  0  0  0  0
  4 11  1  0  0  0  0
  7 11  1  0  0  0  0
 11 12  1  0  0  0  0
 10 13  1  0  0  0  0
 13 14  1  0  0  0  0
 14 15  1  0  0  0  0
A   12
R1
M  END

>  <symbol>
nen2G

>  <m_abbr>
nen2G

>  <m_type>
rna

>  <m_subtype>
natural

>  <m_RgroupIdx>
11

>  <m_Rgroups>
H

$$$$

MolEngine07221613482D

 13 13  0  0  0  0            999 V2000
    7.9157    3.8075    0.0000 N   0  0  0  0  0  0  0  0  0  0  0  0
    7.9157    2.2845    0.0000 C   0  0  0  0  0  0  0  0  0  0  0  0
    6.6009    1.5230    0.0000 N   0  0  0  0  0  0  0  0  0  0  0  0
    5.2774    2.2845    0.0000 C   0  0  0  0  0  0  0  0  0  0  0  0
    5.2759    3.8075    0.0000 C   0  0  0  0  0  0  0  0  0  0  0  0
    6.6009    4.5690    0.0000 C   0  0  0  0  0  0  0  0  0  0  0  0
    6.6009    6.0920    0.0000 O   0  0  0  0  0  0  0  0  0  0  0  0
    6.6009    0.0000    0.0000 R#  0  0  0  0  0  0  0  0  0  0  0  0
    9.2347    1.5230    0.0000 O   0  0  0  0  0  0  0  0  0  0  0  0
    3.9569    4.5690    0.0000 C   0  0  0  0  0  0  0  0  0  0  0  0
    2.6379    3.8075    0.0000 C   0  0  0  0  0  0  0  0  0  0  0  0
    1.3190    4.5690    0.0000 C   0  0  0  0  0  0  0  0  0  0  0  0
    0.0000    3.8075    0.0000 N   0  0  0  0  0  0  0  0  0  0  0  0
  1  2  1  0  0  0  0
  2  3  1  0  0  0  0
  3  4  1  0  0  0  0
  4  5  2  0  0  0  0
  5  6  1  0  0  0  0
  1  6  1  0  0  0  0
  6  7  2  0  0  0  0
  3  8  1  0  0  0  0
  2  9  2  0  0  0  0
  5 10  1  0  0  0  0
 10 11  1  0  0  0  0
 11 12  1  0  0  0  0
 12 13  1  0  0  0  0
A    8
R1
M  END

>  <symbol>
npr5U

>  <m_abbr>
npr5U

>  <m_type>
rna

>  <m_subtype>
natural

>  <m_RgroupIdx>
7

>  <m_Rgroups>
H

$$$$

MolEngine07221613482D

 12 12  0  0  0  0            999 V2000
    1.3190    3.8075    0.0000 N   0  0  0  0  0  0  0  0  0  0  0  0
    1.3190    2.2845    0.0000 C   0  0  0  0  0  0  0  0  0  0  0  0
    2.6379    1.5230    0.0000 N   0  0  0  0  0  0  0  0  0  0  0  0
    3.9569    2.2845    0.0000 C   0  0  0  0  0  0  0  0  0  0  0  0
    3.9569    3.8075    0.0000 C   0  0  0  0  0  0  0  0  0  0  0  0
    2.6379    4.5690    0.0000 C   0  0  0  0  0  0  0  0  0  0  0  0
    0.0000    1.5230    0.0000 O   0  0  0  0  0  0  0  0  0  0  0  0
    2.6379    6.0920    0.0000 O   0  0  0  0  0  0  0  0  0  0  0  0
    2.6379    0.0000    0.0000 R#  0  0  0  0  0  0  0  0  0  0  0  0
    5.2758    4.5690    0.0000 C   0  0  0  0  0  0  0  0  0  0  0  0
    5.2758    6.0920    0.0000 N   0  0  0  0  0  0  0  0  0  0  0  0
    6.5948    6.8535    0.0000 C   0  0  0  0  0  0  0  0  0  0  0  0
  1  2  1  0  0  0  0
  2  3  1  0  0  0  0
  3  4  1  0  0  0  0
  4  5  2  0  0  0  0
  5  6  1  0  0  0  0
  1  6  1  0  0  0  0
  2  7  2  0  0  0  0
  6  8  2  0  0  0  0
  3  9  1  0  0  0  0
  5 10  1  0  0  0  0
 10 11  1  0  0  0  0
 11 12  1  0  0  0  0
A    9
R1
M  END

>  <symbol>
mnm5U

>  <m_abbr>
mnm5U

>  <m_type>
rna

>  <m_subtype>
natural

>  <m_RgroupIdx>
8

>  <m_Rgroups>
H

$$$$

MolEngine07221613482D

 10 11  0  0  0  0            999 V2000
    4.9651    3.4323    0.0000 N   0  0  0  0  0  0  0  0  0  0  0  0
    4.9651    1.9146    0.0000 C   0  0  0  0  0  0  0  0  0  0  0  0
    3.6540    1.1532    0.0000 N   0  0  0  0  0  0  0  0  0  0  0  0
    2.3351    1.9146    0.0000 C   0  0  0  0  0  0  0  0  0  0  0  0
    2.3351    3.4323    0.0000 C   0  0  0  0  0  0  0  0  0  0  0  0
    3.6535    4.1912    0.0000 C   0  0  0  0  0  0  0  0  0  0  0  0
    0.8928    1.4439    0.0000 N   0  0  0  0  0  0  0  0  0  0  0  0
    0.0000    2.6735    0.0000 C   0  0  0  0  0  0  0  0  0  0  0  0
    0.8928    3.8997    0.0000 N   0  0  0  0  0  0  0  0  0  0  0  0
    0.4254    0.0000    0.0000 R#  0  0  0  0  0  0  0  0  0  0  0  0
  1  2  1  0  0  0  0
  2  3  2  0  0  0  0
  3  4  1  0  0  0  0
  4  5  2  0  0  0  0
  5  6  1  0  0  0  0
  1  6  2  0  0  0  0
  4  7  1  0  0  0  0
  7  8  1  0  0  0  0
  8  9  2  0  0  0  0
  5  9  1  0  0  0  0
  7 10  1  0  0  0  0
A   10
R1
M  END

>  <symbol>
purine

>  <m_abbr>
purine

>  <m_type>
rna

>  <m_subtype>
natural

>  <m_RgroupIdx>
9

>  <m_Rgroups>
H

$$$$

MolEngine07221613482D

 11 12  0  0  0  0            999 V2000
    4.9824    3.4443    0.0000 N   0  0  0  0  0  0  0  0  0  0  0  0
    4.9824    1.9213    0.0000 C   0  0  0  0  0  0  0  0  0  0  0  0
    3.6667    1.1572    0.0000 N   0  0  0  0  0  0  0  0  0  0  0  0
    2.3432    1.9213    0.0000 C   0  0  0  0  0  0  0  0  0  0  0  0
    2.3432    3.4443    0.0000 C   0  0  0  0  0  0  0  0  0  0  0  0
    3.6662    4.2058    0.0000 C   0  0  0  0  0  0  0  0  0  0  0  0
    0.8959    1.4489    0.0000 N   0  0  0  0  0  0  0  0  0  0  0  0
    0.0000    2.6828    0.0000 C   0  0  0  0  0  0  0  0  0  0  0  0
    0.8959    3.9132    0.0000 N   0  0  0  0  0  0  0  0  0  0  0  0
    0.4268    0.0000    0.0000 R#  0  0  0  0  0  0  0  0  0  0  0  0
    6.3069    1.1588    0.0000 N   0  0  0  0  0  0  0  0  0  0  0  0
  1  2  1  0  0  0  0
  2  3  2  0  0  0  0
  3  4  1  0  0  0  0
  4  5  2  0  0  0  0
  5  6  1  0  0  0  0
  1  6  2  0  0  0  0
  4  7  1  0  0  0  0
  7  8  1  0  0  0  0
  8  9  2  0  0  0  0
  5  9  1  0  0  0  0
  7 10  1  0  0  0  0
  2 11  1  0  0  0  0
A   10
R1
M  END

>  <symbol>
n2purine

>  <m_abbr>
n2purine

>  <m_type>
rna

>  <m_subtype>
natural

>  <m_RgroupIdx>
9

>  <m_Rgroups>
H

$$$$

MolEngine07221613482D

 10 10  0  0  0  0            999 V2000
    0.0000    3.8115    0.0000 C   0  0  0  0  0  0  0  0  0  0  0  0
    0.0000    2.2885    0.0000 C   0  0  0  0  0  0  0  0  0  0  0  0
    2.6391    2.2885    0.0000 C   0  0  0  0  0  0  0  0  0  0  0  0
    2.6391    3.8115    0.0000 N   0  0  0  0  0  0  0  0  0  0  0  0
    1.3175    4.5730    0.0000 C   0  0  0  0  0  0  0  0  0  0  0  0
    1.3175    5.9892    0.0000 O   0  0  0  0  0  0  0  0  0  0  0  0
    3.9606    1.5230    0.0000 O   0  0  0  0  0  0  0  0  0  0  0  0
    1.3175    1.5230    0.0000 N   0  0  0  0  0  0  0  0  0  0  0  0
    3.9647    4.5589    0.0000 C   0  0  0  0  0  0  0  0  0  0  0  0
    1.3175    0.0000    0.0000 R#  0  0  0  0  0  0  0  0  0  0  0  0
  1  2  2  0  0  0  0
  3  4  1  0  0  0  0
  4  5  1  0  0  0  0
  1  5  1  0  0  0  0
  5  6  2  0  0  0  0
  3  7  2  0  0  0  0
  2  8  1  0  0  0  0
  3  8  1  0  0  0  0
  4  9  1  0  0  0  0
  8 10  1  0  0  0  0
A   10
R1
M  END

>  <symbol>
m3U

>  <m_abbr>
m3U

>  <m_type>
rna

>  <m_subtype>
natural

>  <m_RgroupIdx>
9

>  <m_Rgroups>
H

$$$$

MolEngine07221613482D

 14 14  0  0  0  0            999 V2000
    1.3192    3.8079    0.0000 C   0  0  0  0  0  0  0  0  0  0  0  0
    1.3192    2.2857    0.0000 C   0  0  0  0  0  0  0  0  0  0  0  0
    2.6384    1.5221    0.0000 N   0  0  0  0  0  0  0  0  0  0  0  0
    3.9576    2.2857    0.0000 C   0  0  0  0  0  0  0  0  0  0  0  0
    3.9576    3.8079    0.0000 N   0  0  0  0  0  0  0  0  0  0  0  0
    2.6384    4.5689    0.0000 C   0  0  0  0  0  0  0  0  0  0  0  0
    2.6384    5.9846    0.0000 O   0  0  0  0  0  0  0  0  0  0  0  0
    5.2818    1.5221    0.0000 O   0  0  0  0  0  0  0  0  0  0  0  0
    0.0000    4.5689    0.0000 C   0  0  0  0  0  0  0  0  0  0  0  0
    5.2818    4.5689    0.0000 C   0  0  0  0  0  0  0  0  0  0  0  0
    6.5909    3.8079    0.0000 C   0  0  0  0  0  0  0  0  0  0  0  0
    7.9076    4.5689    0.0000 C   0  0  0  0  0  0  0  0  0  0  0  0
    2.6384    0.0000    0.0000 R#  0  0  0  0  0  0  0  0  0  0  0  0
    9.2267    5.3300    0.0000 N   0  0  0  0  0  0  0  0  0  0  0  0
  1  2  2  0  0  0  0
  2  3  1  0  0  0  0
  3  4  1  0  0  0  0
  4  5  1  0  0  0  0
  5  6  1  0  0  0  0
  1  6  1  0  0  0  0
  6  7  2  0  0  0  0
  4  8  2  0  0  0  0
  1  9  1  0  0  0  0
  5 10  1  0  0  0  0
 10 11  1  0  0  0  0
 11 12  1  0  0  0  0
  3 13  1  0  0  0  0
 12 14  3  0  0  0  0
A   13
R1
M  END

>  <symbol>
cneT

>  <m_abbr>
cneT

>  <m_type>
rna

>  <m_subtype>
natural

>  <m_RgroupIdx>
12

>  <m_Rgroups>
H

$$$$

MolEngine07221613482D

 20 22  0  0  0  0            999 V2000
    7.6190    1.9162    0.0000 C   0  0  0  0  0  0  0  0  0  0  0  0
    8.9379    1.1547    0.0000 C   0  0  0  0  0  0  0  0  0  0  0  0
   10.2569    1.9162    0.0000 C   0  0  0  0  0  0  0  0  0  0  0  0
   11.5772    1.1555    0.0000 C   0  0  0  0  0  0  0  0  0  0  0  0
   12.8949    1.9162    0.0000 C   0  0  0  0  0  0  0  0  0  0  0  0
   12.8949    3.4392    0.0000 C   0  0  0  0  0  0  0  0  0  0  0  0
   11.5779    4.2027    0.0000 C   0  0  0  0  0  0  0  0  0  0  0  0
   10.2569    3.4392    0.0000 C   0  0  0  0  0  0  0  0  0  0  0  0
    4.9811    3.4392    0.0000 N   0  0  0  0  0  0  0  0  0  0  0  0
    4.9811    1.9162    0.0000 C   0  0  0  0  0  0  0  0  0  0  0  0
    3.6627    1.1543    0.0000 N   0  0  0  0  0  0  0  0  0  0  0  0
    2.3431    1.9162    0.0000 C   0  0  0  0  0  0  0  0  0  0  0  0
    2.3431    3.4392    0.0000 C   0  0  0  0  0  0  0  0  0  0  0  0
    3.6641    4.2027    0.0000 C   0  0  0  0  0  0  0  0  0  0  0  0
    0.8968    1.4476    0.0000 N   0  0  0  0  0  0  0  0  0  0  0  0
    0.0000    2.6797    0.0000 C   0  0  0  0  0  0  0  0  0  0  0  0
    0.8968    3.9078    0.0000 N   0  0  0  0  0  0  0  0  0  0  0  0
    3.6641    5.7257    0.0000 N   0  0  0  0  0  0  0  0  0  0  0  0
    6.3000    1.1547    0.0000 N   0  0  0  0  0  0  0  0  0  0  0  0
    0.4236    0.0000    0.0000 R#  0  0  0  0  0  0  0  0  0  0  0  0
  1  2  1  0  0  0  0
  2  3  1  0  0  0  0
  3  4  2  0  0  0  0
  4  5  1  0  0  0  0
  5  6  2  0  0  0  0
  6  7  1  0  0  0  0
  7  8  2  0  0  0  0
  3  8  1  0  0  0  0
  9 10  1  0  0  0  0
 10 11  2  0  0  0  0
 11 12  1  0  0  0  0
 12 13  2  0  0  0  0
 13 14  1  0  0  0  0
  9 14  2  0  0  0  0
 12 15  1  0  0  0  0
 15 16  1  0  0  0  0
 16 17  2  0  0  0  0
 13 17  1  0  0  0  0
 14 18  1  0  0  0  0
 10 19  1  0  0  0  0
 15 20  1  0  0  0  0
  1 19  1  0  0  0  0
A   20
R1
M  END

>  <symbol>
phen2A

>  <m_abbr>
phen2A

>  <m_type>
rna

>  <m_subtype>
natural

>  <m_RgroupIdx>
19

>  <m_Rgroups>
H

$$$$

MolEngine07221613482D

 18 19  0  0  0  0            999 V2000
    7.6190    2.2890    0.0000 C   0  0  0  0  0  0  0  0  0  0  0  0
    8.9380    1.5275    0.0000 C   0  0  0  0  0  0  0  0  0  0  0  0
   10.2569    2.2890    0.0000 C   0  0  0  0  0  0  0  0  0  0  0  0
   11.5772    1.5283    0.0000 N   0  0  0  0  0  0  0  0  0  0  0  0
    4.9811    3.8120    0.0000 N   0  0  0  0  0  0  0  0  0  0  0  0
    4.9811    2.2890    0.0000 C   0  0  0  0  0  0  0  0  0  0  0  0
    3.6628    1.5271    0.0000 N   0  0  0  0  0  0  0  0  0  0  0  0
    2.3431    2.2890    0.0000 C   0  0  0  0  0  0  0  0  0  0  0  0
    2.3431    3.8120    0.0000 C   0  0  0  0  0  0  0  0  0  0  0  0
    3.6641    4.5755    0.0000 C   0  0  0  0  0  0  0  0  0  0  0  0
    0.8969    1.8204    0.0000 N   0  0  0  0  0  0  0  0  0  0  0  0
    0.0000    3.0525    0.0000 C   0  0  0  0  0  0  0  0  0  0  0  0
    0.8969    4.2806    0.0000 N   0  0  0  0  0  0  0  0  0  0  0  0
    3.6641    6.0985    0.0000 N   0  0  0  0  0  0  0  0  0  0  0  0
    6.3001    1.5275    0.0000 N   0  0  0  0  0  0  0  0  0  0  0  0
    0.4237    0.3728    0.0000 R#  0  0  0  0  0  0  0  0  0  0  0  0
   11.5787    0.0000    0.0000 C   0  0  0  0  0  0  0  0  0  0  0  0
   12.9001    2.2937    0.0000 C   0  0  0  0  0  0  0  0  0  0  0  0
  1  2  1  0  0  0  0
  2  3  1  0  0  0  0
  3  4  1  0  0  0  0
  5  6  1  0  0  0  0
  6  7  2  0  0  0  0
  7  8  1  0  0  0  0
  8  9  2  0  0  0  0
  9 10  1  0  0  0  0
  5 10  2  0  0  0  0
  8 11  1  0  0  0  0
 11 12  1  0  0  0  0
 12 13  2  0  0  0  0
  9 13  1  0  0  0  0
 10 14  1  0  0  0  0
  6 15  1  0  0  0  0
 11 16  1  0  0  0  0
  1 15  1  0  0  0  0
  4 17  1  0  0  0  0
  4 18  1  0  0  0  0
A   16
R1
M  END

>  <symbol>
m2nprn2A

>  <m_abbr>
m2nprn2A

>  <m_type>
rna

>  <m_subtype>
natural

>  <m_RgroupIdx>
15

>  <m_Rgroups>
H

$$$$

MolEngine07221613482D

 17 18  0  0  0  0            999 V2000
    7.6190    1.9161    0.0000 C   0  0  0  0  0  0  0  0  0  0  0  0
    8.9380    1.1546    0.0000 C   0  0  0  0  0  0  0  0  0  0  0  0
   10.2569    1.9161    0.0000 C   0  0  0  0  0  0  0  0  0  0  0  0
   11.5772    1.1555    0.0000 O   0  0  0  0  0  0  0  0  0  0  0  0
    4.9811    3.4391    0.0000 N   0  0  0  0  0  0  0  0  0  0  0  0
    4.9811    1.9161    0.0000 C   0  0  0  0  0  0  0  0  0  0  0  0
    3.6628    1.1542    0.0000 N   0  0  0  0  0  0  0  0  0  0  0  0
    2.3431    1.9161    0.0000 C   0  0  0  0  0  0  0  0  0  0  0  0
    2.3431    3.4391    0.0000 C   0  0  0  0  0  0  0  0  0  0  0  0
    3.6641    4.2027    0.0000 C   0  0  0  0  0  0  0  0  0  0  0  0
    0.8969    1.4476    0.0000 N   0  0  0  0  0  0  0  0  0  0  0  0
    0.0000    2.6797    0.0000 C   0  0  0  0  0  0  0  0  0  0  0  0
    0.8969    3.9078    0.0000 N   0  0  0  0  0  0  0  0  0  0  0  0
    3.6641    5.7257    0.0000 N   0  0  0  0  0  0  0  0  0  0  0  0
    6.3001    1.1546    0.0000 N   0  0  0  0  0  0  0  0  0  0  0  0
    0.4237    0.0000    0.0000 R#  0  0  0  0  0  0  0  0  0  0  0  0
   12.9001    1.9208    0.0000 C   0  0  0  0  0  0  0  0  0  0  0  0
  1  2  1  0  0  0  0
  2  3  1  0  0  0  0
  3  4  1  0  0  0  0
  5  6  1  0  0  0  0
  6  7  2  0  0  0  0
  7  8  1  0  0  0  0
  8  9  2  0  0  0  0
  9 10  1  0  0  0  0
  5 10  2  0  0  0  0
  8 11  1  0  0  0  0
 11 12  1  0  0  0  0
 12 13  2  0  0  0  0
  9 13  1  0  0  0  0
 10 14  1  0  0  0  0
  6 15  1  0  0  0  0
 11 16  1  0  0  0  0
  1 15  1  0  0  0  0
  4 17  1  0  0  0  0
A   16
R1
M  END

>  <symbol>
moprn2A

>  <m_abbr>
moprn2A

>  <m_type>
rna

>  <m_subtype>
natural

>  <m_RgroupIdx>
15

>  <m_Rgroups>
H

$$$$

MolEngine07221613482D

 19 21  0  0  0  0            999 V2000
    7.6189    1.9218    0.0000 C   0  0  0  0  0  0  0  0  0  0  0  0
    8.9378    1.1603    0.0000 C   0  0  0  0  0  0  0  0  0  0  0  0
   10.2568    1.9218    0.0000 C   0  0  0  0  0  0  0  0  0  0  0  0
    4.9810    3.4448    0.0000 N   0  0  0  0  0  0  0  0  0  0  0  0
    4.9810    1.9218    0.0000 C   0  0  0  0  0  0  0  0  0  0  0  0
    3.6613    1.1607    0.0000 N   0  0  0  0  0  0  0  0  0  0  0  0
    2.3430    1.9218    0.0000 C   0  0  0  0  0  0  0  0  0  0  0  0
    2.3430    3.4448    0.0000 C   0  0  0  0  0  0  0  0  0  0  0  0
    3.6599    4.2043    0.0000 C   0  0  0  0  0  0  0  0  0  0  0  0
    0.8928    1.4492    0.0000 N   0  0  0  0  0  0  0  0  0  0  0  0
    0.0000    2.6813    0.0000 C   0  0  0  0  0  0  0  0  0  0  0  0
    0.8928    3.9135    0.0000 N   0  0  0  0  0  0  0  0  0  0  0  0
    3.6599    5.7273    0.0000 N   0  0  0  0  0  0  0  0  0  0  0  0
    6.2999    1.1603    0.0000 N   0  0  0  0  0  0  0  0  0  0  0  0
    0.4245    0.0000    0.0000 R#  0  0  0  0  0  0  0  0  0  0  0  0
   11.6470    1.2999    0.0000 N   0  0  0  0  0  0  0  0  0  0  0  0
   12.6652    2.4310    0.0000 C   0  0  0  0  0  0  0  0  0  0  0  0
   11.9055    3.7524    0.0000 C   0  0  0  0  0  0  0  0  0  0  0  0
   10.4144    3.4453    0.0000 N   0  0  0  0  0  0  0  0  0  0  0  0
  1  2  1  0  0  0  0
  2  3  1  0  0  0  0
  4  5  1  0  0  0  0
  5  6  2  0  0  0  0
  6  7  1  0  0  0  0
  7  8  2  0  0  0  0
  8  9  1  0  0  0  0
  4  9  2  0  0  0  0
  7 10  1  0  0  0  0
 10 11  1  0  0  0  0
 11 12  2  0  0  0  0
  8 12  1  0  0  0  0
  9 13  1  0  0  0  0
  5 14  1  0  0  0  0
 10 15  1  0  0  0  0
  1 14  1  0  0  0  0
  3 16  1  0  0  0  0
 16 17  1  0  0  0  0
 17 18  2  0  0  0  0
 18 19  1  0  0  0  0
  3 19  2  0  0  0  0
A   15
R1
M  END

>  <symbol>
2imen2A

>  <m_abbr>
2imen2A

>  <m_type>
rna

>  <m_subtype>
natural

>  <m_RgroupIdx>
14

>  <m_Rgroups>
H

$$$$

MolEngine07221613482D

 11 11  0  0  0  0            999 V2000
    1.3191    3.8116    0.0000 C   0  0  0  0  0  0  0  0  0  0  0  0
    1.3191    2.2886    0.0000 C   0  0  0  0  0  0  0  0  0  0  0  0
    3.9582    2.2886    0.0000 C   0  0  0  0  0  0  0  0  0  0  0  0
    3.9582    3.8116    0.0000 N   0  0  0  0  0  0  0  0  0  0  0  0
    2.6366    4.5731    0.0000 C   0  0  0  0  0  0  0  0  0  0  0  0
    2.6366    5.9893    0.0000 O   0  0  0  0  0  0  0  0  0  0  0  0
    5.2797    1.5230    0.0000 O   0  0  0  0  0  0  0  0  0  0  0  0
    2.6366    1.5230    0.0000 N   0  0  0  0  0  0  0  0  0  0  0  0
    5.2838    4.5590    0.0000 C   0  0  0  0  0  0  0  0  0  0  0  0
    2.6366    0.0000    0.0000 R#  0  0  0  0  0  0  0  0  0  0  0  0
    0.0000    4.5728    0.0000 C   0  0  0  0  0  0  0  0  0  0  0  0
  1  2  2  0  0  0  0
  3  4  1  0  0  0  0
  4  5  1  0  0  0  0
  1  5  1  0  0  0  0
  5  6  2  0  0  0  0
  3  7  2  0  0  0  0
  2  8  1  0  0  0  0
  3  8  1  0  0  0  0
  4  9  1  0  0  0  0
  8 10  1  0  0  0  0
  1 11  1  0  0  0  0
A   10
R1
M  END

>  <symbol>
m3T

>  <m_abbr>
m3T

>  <m_type>
rna

>  <m_subtype>
natural

>  <m_RgroupIdx>
9

>  <m_Rgroups>
H

$$$$

MolEngine07221613482D

  9  9  0  0  0  0            999 V2000
    0.0000    3.8116    0.0000 C   0  0  0  0  0  0  0  0  0  0  0  0
    0.0000    2.2886    0.0000 C   0  0  0  0  0  0  0  0  0  0  0  0
    2.6390    2.2886    0.0000 C   0  0  0  0  0  0  0  0  0  0  0  0
    2.6390    3.8116    0.0000 N   0  0  0  0  0  0  0  0  0  0  0  0
    1.3175    4.5731    0.0000 C   0  0  0  0  0  0  0  0  0  0  0  0
    1.3175    5.9893    0.0000 S   0  0  0  0  0  0  0  0  0  0  0  0
    3.9606    1.5230    0.0000 O   0  0  0  0  0  0  0  0  0  0  0  0
    1.3175    1.5230    0.0000 N   0  0  0  0  0  0  0  0  0  0  0  0
    1.3175    0.0000    0.0000 R#  0  0  0  0  0  0  0  0  0  0  0  0
  1  2  2  0  0  0  0
  3  4  1  0  0  0  0
  4  5  1  0  0  0  0
  1  5  1  0  0  0  0
  5  6  2  0  0  0  0
  3  7  2  0  0  0  0
  2  8  1  0  0  0  0
  3  8  1  0  0  0  0
  8  9  1  0  0  0  0
A    9
R1
M  END

>  <symbol>
s4U

>  <m_abbr>
s4U

>  <m_type>
rna

>  <m_subtype>
natural

>  <m_RgroupIdx>
8

>  <m_Rgroups>
H

$$$$

MolEngine07221613482D

 14 14  0  0  0  0            999 V2000
    1.3191    3.8116    0.0000 C   0  0  0  0  0  0  0  0  0  0  0  0
    1.3191    2.2886    0.0000 C   0  0  0  0  0  0  0  0  0  0  0  0
    3.9582    2.2886    0.0000 C   0  0  0  0  0  0  0  0  0  0  0  0
    3.9582    3.8116    0.0000 N   0  0  0  0  0  0  0  0  0  0  0  0
    2.6366    4.5731    0.0000 C   0  0  0  0  0  0  0  0  0  0  0  0
    2.6366    5.9893    0.0000 S   0  0  0  0  0  0  0  0  0  0  0  0
    5.2797    1.5230    0.0000 O   0  0  0  0  0  0  0  0  0  0  0  0
    2.6366    1.5230    0.0000 N   0  0  0  0  0  0  0  0  0  0  0  0
    2.6366    0.0000    0.0000 R#  0  0  0  0  0  0  0  0  0  0  0  0
    0.0000    4.5727    0.0000 C   0  0  0  0  0  0  0  0  0  0  0  0
    3.9556    6.7508    0.0000 C   0  0  0  0  0  0  0  0  0  0  0  0
    3.9556    8.2738    0.0000 C   0  0  0  0  0  0  0  0  0  0  0  0
    5.2745    9.0353    0.0000 C   0  0  0  0  0  0  0  0  0  0  0  0
    6.5889    9.7941    0.0000 N   0  0  0  0  0  0  0  0  0  0  0  0
 13 14  3  0  0  0  0
  1  2  2  0  0  0  0
  3  4  1  0  0  0  0
  4  5  2  0  0  0  0
  1  5  1  0  0  0  0
  5  6  1  0  0  0  0
  3  7  2  0  0  0  0
  2  8  1  0  0  0  0
  3  8  1  0  0  0  0
  8  9  1  0  0  0  0
  1 10  1  0  0  0  0
  6 11  1  0  0  0  0
 11 12  1  0  0  0  0
 12 13  1  0  0  0  0
A    9
R1
M  END

>  <symbol>
cnes4T

>  <m_abbr>
cnes4T

>  <m_type>
rna

>  <m_subtype>
natural

>  <m_RgroupIdx>
8

>  <m_Rgroups>
H

$$$$

MolEngine07221613482D

 14 15  0  0  0  0            999 V2000
    5.0313    0.0000    0.0000 R#  0  0  0  0  0  0  0  0  0  0  0  0
    5.0313    1.7556    0.0000 N   0  0  0  0  0  0  0  0  0  0  0  0
    6.3461    2.5137    0.0000 C   0  0  0  0  0  0  0  0  0  0  0  0
    6.3461    4.0302    0.0000 N   0  0  0  0  0  0  0  0  0  0  0  0
    5.0313    4.7886    0.0000 C   0  0  0  0  0  0  0  0  0  0  0  0
    3.7164    4.0302    0.0000 C   0  0  0  0  0  0  0  0  0  0  0  0
    3.7164    2.5137    0.0000 C   0  0  0  0  0  0  0  0  0  0  0  0
    5.0313    6.3063    0.0000 O   0  0  0  0  0  0  0  0  0  0  0  0
    7.6605    1.7548    0.0000 O   0  0  0  0  0  0  0  0  0  0  0  0
    2.4020    4.7890    0.0000 C   0  0  0  0  0  0  0  0  0  0  0  0
    2.2434    6.2985    0.0000 S   0  0  0  0  0  0  0  0  0  0  0  0
    0.7588    6.6140    0.0000 C   0  0  0  0  0  0  0  0  0  0  0  0
    0.0000    5.2996    0.0000 C   0  0  0  0  0  0  0  0  0  0  0  0
    1.0155    4.1717    0.0000 N   0  0  0  0  0  0  0  0  0  0  0  0
  1  2  1  0  0  0  0
  2  3  1  0  0  0  0
  3  4  1  0  0  0  0
  4  5  1  0  0  0  0
  5  6  1  0  0  0  0
  6  7  2  0  0  0  0
  2  7  1  0  0  0  0
  5  8  2  0  0  0  0
  3  9  2  0  0  0  0
  6 10  1  0  0  0  0
 10 11  1  0  0  0  0
 11 12  1  0  0  0  0
 12 13  2  0  0  0  0
 13 14  1  0  0  0  0
 14 10  2  0  0  0  0
A    1
R1
M  END

>  <symbol>
thiaz5U

>  <m_abbr>
thiaz5U

>  <m_type>
rna

>  <m_subtype>
natural

>  <m_RgroupIdx>
0

>  <m_Rgroups>
H

$$$$

MolEngine07221613482D

 14 15  0  0  0  0            999 V2000
    3.7295    3.8088    0.0000 C   0  0  0  0  0  0  0  0  0  0  0  0
    3.7295    2.2866    0.0000 C   0  0  0  0  0  0  0  0  0  0  0  0
    5.0472    1.5230    0.0000 N   0  0  0  0  0  0  0  0  0  0  0  0
    6.3676    2.2866    0.0000 C   0  0  0  0  0  0  0  0  0  0  0  0
    6.3676    3.8088    0.0000 N   0  0  0  0  0  0  0  0  0  0  0  0
    5.0472    4.5697    0.0000 C   0  0  0  0  0  0  0  0  0  0  0  0
    5.0472    6.0927    0.0000 N   0  0  0  0  0  0  0  0  0  0  0  0
    7.6866    1.5251    0.0000 O   0  0  0  0  0  0  0  0  0  0  0  0
    2.4105    4.5703    0.0000 C   0  0  0  0  0  0  0  0  0  0  0  0
    2.2513    6.0850    0.0000 N   0  0  0  0  0  0  0  0  0  0  0  0
    0.7614    6.4014    0.0000 C   0  0  0  0  0  0  0  0  0  0  0  0
    0.0000    5.0826    0.0000 C   0  0  0  0  0  0  0  0  0  0  0  0
    1.0192    3.9508    0.0000 S   0  0  0  0  0  0  0  0  0  0  0  0
    5.0472    0.0000    0.0000 R#  0  0  0  0  0  0  0  0  0  0  0  0
  1  2  2  0  0  0  0
  2  3  1  0  0  0  0
  3  4  1  0  0  0  0
  4  5  1  0  0  0  0
  5  6  2  0  0  0  0
  1  6  1  0  0  0  0
  6  7  1  0  0  0  0
  4  8  2  0  0  0  0
  1  9  1  0  0  0  0
  9 10  2  0  0  0  0
 10 11  1  0  0  0  0
 11 12  2  0  0  0  0
 12 13  1  0  0  0  0
 13  9  1  0  0  0  0
  3 14  1  0  0  0  0
A   14
R1
M  END

>  <symbol>
thiaz5C

>  <m_abbr>
thiaz5C

>  <m_type>
rna

>  <m_subtype>
natural

>  <m_RgroupIdx>
13

>  <m_Rgroups>
H

$$$$

MolEngine07221613482D

 19 20  0  0  0  0            999 V2000
    2.6303    0.0000    0.0000 R#  0  0  0  0  0  0  0  0  0  0  0  0
    3.9434    3.7957    0.0000 N   0  0  0  0  0  0  0  0  0  0  0  0
    3.9434    2.2788    0.0000 C   0  0  0  0  0  0  0  0  0  0  0  0
    2.6303    1.5177    0.0000 N   0  0  0  0  0  0  0  0  0  0  0  0
    1.3143    2.2788    0.0000 C   0  0  0  0  0  0  0  0  0  0  0  0
    1.3143    3.7957    0.0000 C   0  0  0  0  0  0  0  0  0  0  0  0
    2.6302    4.5539    0.0000 C   0  0  0  0  0  0  0  0  0  0  0  0
    2.6302    6.0716    0.0000 O   0  0  0  0  0  0  0  0  0  0  0  0
    5.2578    1.5199    0.0000 O   0  0  0  0  0  0  0  0  0  0  0  0
    0.0000    4.5545    0.0000 C   0  0  0  0  0  0  0  0  0  0  0  0
    5.2578    4.5545    0.0000 C   0  0  0  0  0  0  0  0  0  0  0  0
    6.5721    3.7957    0.0000 C   0  0  0  0  0  0  0  0  0  0  0  0
    6.5722    2.2780    0.0000 C   0  0  0  0  0  0  0  0  0  0  0  0
    7.8864    1.5192    0.0000 C   0  0  0  0  0  0  0  0  0  0  0  0
    9.2009    2.2780    0.0000 C   0  0  0  0  0  0  0  0  0  0  0  0
    9.2010    3.7956    0.0000 C   0  0  0  0  0  0  0  0  0  0  0  0
    7.8866    4.5545    0.0000 C   0  0  0  0  0  0  0  0  0  0  0  0
   10.5152    1.5191    0.0000 O   0  0  0  0  0  0  0  0  0  0  0  0
   11.8296    2.2780    0.0000 C   0  0  0  0  0  0  0  0  0  0  0  0
  2  3  1  0  0  0  0
  3  4  1  0  0  0  0
  4  5  1  0  0  0  0
  5  6  2  0  0  0  0
  6  7  1  0  0  0  0
  2  7  1  0  0  0  0
  7  8  2  0  0  0  0
  3  9  2  0  0  0  0
  6 10  1  0  0  0  0
  1  4  1  0  0  0  0
  2 11  1  0  0  0  0
 11 12  1  0  0  0  0
 12 13  2  0  0  0  0
 13 14  1  0  0  0  0
 14 15  2  0  0  0  0
 15 16  1  0  0  0  0
 16 17  2  0  0  0  0
 17 12  1  0  0  0  0
 15 18  1  0  0  0  0
 18 19  1  0  0  0  0
A    1
R1
M  END

>  <symbol>
mo4bn3T

>  <m_abbr>
mo4bn3T

>  <m_type>
rna

>  <m_subtype>
natural

>  <m_RgroupIdx>
0

>  <m_Rgroups>
H

$$$$

MolEngine07221613482D

 10 10  0  0  0  0            999 V2000
    3.9573    3.8092    0.0000 N   0  0  0  0  0  0  0  0  0  0  0  0
    3.9573    2.2866    0.0000 C   0  0  0  0  0  0  0  0  0  0  0  0
    2.6396    1.5230    0.0000 N   0  0  0  0  0  0  0  0  0  0  0  0
    1.3189    2.2866    0.0000 C   0  0  0  0  0  0  0  0  0  0  0  0
    1.3189    3.8092    0.0000 C   0  0  0  0  0  0  0  0  0  0  0  0
    2.6396    4.5703    0.0000 C   0  0  0  0  0  0  0  0  0  0  0  0
    2.6396    6.0933    0.0000 S   0  0  0  0  0  0  0  0  0  0  0  0
    5.2763    1.5251    0.0000 O   0  0  0  0  0  0  0  0  0  0  0  0
    0.0000    4.5707    0.0000 C   0  0  0  0  0  0  0  0  0  0  0  0
    2.6396    0.0000    0.0000 R#  0  0  0  0  0  0  0  0  0  0  0  0
  1  2  1  0  0  0  0
  2  3  1  0  0  0  0
  3  4  1  0  0  0  0
  4  5  2  0  0  0  0
  5  6  1  0  0  0  0
  1  6  1  0  0  0  0
  6  7  2  0  0  0  0
  2  8  2  0  0  0  0
  5  9  1  0  0  0  0
  3 10  1  0  0  0  0
A   10
R1
M  END

>  <symbol>
s4T

>  <m_abbr>
s4T

>  <m_type>
rna

>  <m_subtype>
natural

>  <m_RgroupIdx>
9

>  <m_Rgroups>
H

$$$$

MolEngine07221613482D

 13 13  0  0  0  0            999 V2000
    7.8863    3.7954    0.0000 N   0  0  0  0  0  0  0  0  0  0  0  0
    7.8863    2.2787    0.0000 C   0  0  0  0  0  0  0  0  0  0  0  0
    6.5731    1.5177    0.0000 N   0  0  0  0  0  0  0  0  0  0  0  0
    5.2581    2.2787    0.0000 C   0  0  0  0  0  0  0  0  0  0  0  0
    5.2575    3.7954    0.0000 C   0  0  0  0  0  0  0  0  0  0  0  0
    6.5731    4.5537    0.0000 C   0  0  0  0  0  0  0  0  0  0  0  0
    6.5731    6.0714    0.0000 N   0  0  0  0  0  0  0  0  0  0  0  0
    9.2006    1.5199    0.0000 O   0  0  0  0  0  0  0  0  0  0  0  0
    3.9431    4.5543    0.0000 C   0  0  0  0  0  0  0  0  0  0  0  0
    2.6287    5.3132    0.0000 C   0  0  0  0  0  0  0  0  0  0  0  0
    1.3144    6.0720    0.0000 C   0  0  0  0  0  0  0  0  0  0  0  0
    0.0000    5.3132    0.0000 N   0  0  0  0  0  0  0  0  0  0  0  0
    6.5731    0.0000    0.0000 R#  0  0  0  0  0  0  0  0  0  0  0  0
  1  2  1  0  0  0  0
  2  3  1  0  0  0  0
  3  4  1  0  0  0  0
  4  5  2  0  0  0  0
  5  6  1  0  0  0  0
  1  6  2  0  0  0  0
  6  7  1  0  0  0  0
  2  8  2  0  0  0  0
  5  9  1  0  0  0  0
  9 10  3  0  0  0  0
 10 11  1  0  0  0  0
 11 12  1  0  0  0  0
  3 13  1  0  0  0  0
A   13
R1
M  END

>  <symbol>
npry5C

>  <m_abbr>
npry5C

>  <m_type>
rna

>  <m_subtype>
natural

>  <m_RgroupIdx>
12

>  <m_Rgroups>
H

$$$$

MolEngine07221613482D

 13 13  0  0  0  0            999 V2000
    7.9138    3.8086    0.0000 N   0  0  0  0  0  0  0  0  0  0  0  0
    7.9138    2.2866    0.0000 C   0  0  0  0  0  0  0  0  0  0  0  0
    6.5960    1.5230    0.0000 N   0  0  0  0  0  0  0  0  0  0  0  0
    5.2764    2.2866    0.0000 C   0  0  0  0  0  0  0  0  0  0  0  0
    5.2759    3.8086    0.0000 C   0  0  0  0  0  0  0  0  0  0  0  0
    6.5960    4.5695    0.0000 C   0  0  0  0  0  0  0  0  0  0  0  0
    6.5960    6.0925    0.0000 O   0  0  0  0  0  0  0  0  0  0  0  0
    9.2327    1.5251    0.0000 O   0  0  0  0  0  0  0  0  0  0  0  0
    3.9569    4.5701    0.0000 C   0  0  0  0  0  0  0  0  0  0  0  0
    2.6379    5.3316    0.0000 C   0  0  0  0  0  0  0  0  0  0  0  0
    1.3190    6.0931    0.0000 C   0  0  0  0  0  0  0  0  0  0  0  0
    0.0000    5.3316    0.0000 N   0  0  0  0  0  0  0  0  0  0  0  0
    6.5960    0.0000    0.0000 R#  0  0  0  0  0  0  0  0  0  0  0  0
  1  2  1  0  0  0  0
  2  3  1  0  0  0  0
  3  4  1  0  0  0  0
  4  5  2  0  0  0  0
  5  6  1  0  0  0  0
  1  6  1  0  0  0  0
  6  7  2  0  0  0  0
  2  8  2  0  0  0  0
  5  9  1  0  0  0  0
  9 10  3  0  0  0  0
 10 11  1  0  0  0  0
 11 12  1  0  0  0  0
  3 13  1  0  0  0  0
A   13
R1
M  END

>  <symbol>
npry5U

>  <m_abbr>
npry5U

>  <m_type>
rna

>  <m_subtype>
natural

>  <m_RgroupIdx>
12

>  <m_Rgroups>
H

$$$$

MolEngine07221613482D

 26 28  0  0  0  0            999 V2000
    2.6300    0.1244    0.0000 R#  0  0  0  0  0  0  0  0  0  0  0  0
    3.9432    3.9198    0.0000 N   0  0  0  0  0  0  0  0  0  0  0  0
    3.9432    2.4031    0.0000 C   0  0  0  0  0  0  0  0  0  0  0  0
    2.6300    1.6421    0.0000 N   0  0  0  0  0  0  0  0  0  0  0  0
    1.3144    2.4031    0.0000 C   0  0  0  0  0  0  0  0  0  0  0  0
    1.3144    3.9198    0.0000 C   0  0  0  0  0  0  0  0  0  0  0  0
    2.6300    4.6780    0.0000 C   0  0  0  0  0  0  0  0  0  0  0  0
    2.6300    6.1957    0.0000 O   0  0  0  0  0  0  0  0  0  0  0  0
    5.2576    1.6442    0.0000 O   0  0  0  0  0  0  0  0  0  0  0  0
    0.0000    4.6786    0.0000 C   0  0  0  0  0  0  0  0  0  0  0  0
    5.2576    4.6786    0.0000 C   0  0  0  0  0  0  0  0  0  0  0  0
    6.5719    3.9198    0.0000 O   0  0  0  0  0  0  0  0  0  0  0  0
    7.8863    4.6786    0.0000 C   0  0  0  0  0  0  0  0  0  0  0  0
    7.8863    6.1963    0.0000 C   0  0  0  0  0  0  0  0  0  0  0  0
    9.2007    3.9198    0.0000 C   0  0  0  0  0  0  0  0  0  0  0  0
    9.2007    2.4021    0.0000 C   0  0  0  0  0  0  0  0  0  0  0  0
   10.5148    1.6432    0.0000 C   0  0  0  0  0  0  0  0  0  0  0  0
   11.8293    2.4021    0.0000 C   0  0  0  0  0  0  0  0  0  0  0  0
   11.8293    3.9198    0.0000 C   0  0  0  0  0  0  0  0  0  0  0  0
   10.5148    4.6786    0.0000 C   0  0  0  0  0  0  0  0  0  0  0  0
   10.8304    0.1585    0.0000 O   0  0  0  0  0  0  0  0  0  0  0  0
   12.3398    0.0000    0.0000 C   0  0  0  0  0  0  0  0  0  0  0  0
   12.9570    1.3864    0.0000 O   0  0  0  0  0  0  0  0  0  0  0  0
   10.5148    6.1963    0.0000 N   0  3  0  0  0  0  0  0  0  0  0  0
    9.2004    6.9552    0.0000 O   0  0  0  0  0  0  0  0  0  0  0  0
   11.8292    6.9552    0.0000 O   0  5  0  0  0  0  0  0  0  0  0  0
  2  3  1  0  0  0  0
  3  4  1  0  0  0  0
  4  5  1  0  0  0  0
  5  6  2  0  0  0  0
  6  7  1  0  0  0  0
  2  7  1  0  0  0  0
  7  8  2  0  0  0  0
  3  9  2  0  0  0  0
  1  4  1  0  0  0  0
  6 10  1  0  0  0  0
  2 11  1  0  0  0  0
 11 12  1  0  0  0  0
 12 13  1  0  0  0  0
 13 14  1  0  0  0  0
 13 15  1  0  0  0  0
 15 16  2  0  0  0  0
 16 17  1  0  0  0  0
 17 18  2  0  0  0  0
 18 19  1  0  0  0  0
 19 20  2  0  0  0  0
 20 15  1  0  0  0  0
 17 21  1  0  0  0  0
 21 22  1  0  0  0  0
 22 23  1  0  0  0  0
 23 18  1  0  0  0  0
 20 24  1  0  0  0  0
 24 25  2  0  0  0  0
 24 26  1  0  0  0  0
A    1
R1
M  CHG  1  24   1
M  CHG  1  26  -1
M  END

>  <symbol>
npomT

>  <m_abbr>
npomT

>  <m_type>
rna

>  <m_subtype>
natural

>  <m_RgroupIdx>
0

>  <m_Rgroups>
H

$$$$

MolEngine07221613482D

 45 48  0  0  0  0            999 V2000
    3.1881    0.0000    0.0000 R#  0  0  0  0  0  0  0  0  0  0  0  0
    4.7683    4.8858    0.0000 C   0  0  0  0  0  0  0  0  0  0  0  0
    4.7719    3.0497    0.0000 C   0  0  0  0  0  0  0  0  0  0  0  0
    3.1840    2.1253    0.0000 N   0  0  0  0  0  0  0  0  0  0  0  0
    1.5893    3.0436    0.0000 C   0  0  0  0  0  0  0  0  0  0  0  0
    1.5858    4.8797    0.0000 N   0  0  0  0  0  0  0  0  0  0  0  0
    3.1769    5.8006    0.0000 C   0  0  0  0  0  0  0  0  0  0  0  0
    3.1734    7.6379    0.0000 O   0  0  0  0  0  0  0  0  0  0  0  0
    0.0000    2.1219    0.0000 O   0  0  0  0  0  0  0  0  0  0  0  0
    6.3577    5.8074    0.0000 C   0  0  0  0  0  0  0  0  0  0  0  0
    7.9506    4.8919    0.0000 C   0  0  0  0  0  0  0  0  0  0  0  0
    9.5399    5.8135    0.0000 C   0  0  0  0  0  0  0  0  0  0  0  0
    9.5364    7.6508    0.0000 O   0  0  0  0  0  0  0  0  0  0  0  0
   11.1328    4.8980    0.0000 N   0  0  0  0  0  0  0  0  0  0  0  0
   12.7221    5.8196    0.0000 C   0  0  0  0  0  0  0  0  0  0  0  0
   14.3150    4.9041    0.0000 C   0  0  0  0  0  0  0  0  0  0  0  0
   15.9044    5.8257    0.0000 C   0  0  0  0  0  0  0  0  0  0  0  0
   17.4972    4.9102    0.0000 C   0  0  0  0  0  0  0  0  0  0  0  0
   19.0866    5.8318    0.0000 C   0  0  0  0  0  0  0  0  0  0  0  0
   20.6795    4.9163    0.0000 C   0  0  0  0  0  0  0  0  0  0  0  0
   22.2688    5.8379    0.0000 N   0  0  0  0  0  0  0  0  0  0  0  0
   23.8617    4.9224    0.0000 C   0  0  0  0  0  0  0  0  0  0  0  0
   25.4510    5.8440    0.0000 C   0  0  0  0  0  0  0  0  0  0  0  0
   23.8652    3.0851    0.0000 O   0  0  0  0  0  0  0  0  0  0  0  0
   27.0439    4.9284    0.0000 C   0  0  0  0  0  0  0  0  0  0  0  0
   28.6333    5.8501    0.0000 C   0  0  0  0  0  0  0  0  0  0  0  0
   30.2085    4.9046    0.0000 C   0  0  0  0  0  0  0  0  0  0  0  0
   31.8150    5.7960    0.0000 C   0  0  0  0  0  0  0  0  0  0  0  0
   31.8463    7.6330    0.0000 N   0  0  0  0  0  0  0  0  0  0  0  0
   33.3903    4.8505    0.0000 O   0  0  0  0  0  0  0  0  0  0  0  0
   33.5239    8.1166    0.0000 C   0  0  0  0  0  0  0  0  0  0  0  0
   34.1331    9.4997    0.0000 C   0  0  0  0  0  0  0  0  0  0  0  0
   33.6639   10.9429    0.0000 C   0  0  0  0  0  0  0  0  0  0  0  0
   29.6654    9.6548    0.0000 C   0  0  0  0  0  0  0  0  0  0  0  0
   30.1012    8.2010    0.0000 C   0  0  0  0  0  0  0  0  0  0  0  0
   35.6176    9.1845    0.0000 C   0  0  0  0  0  0  0  0  0  0  0  0
   36.6329   10.3124    0.0000 C   0  0  0  0  0  0  0  0  0  0  0  0
   36.1636   11.7556    0.0000 C   0  0  0  0  0  0  0  0  0  0  0  0
   34.6792   12.0709    0.0000 C   0  0  0  0  0  0  0  0  0  0  0  0
   28.1885   10.0043    0.0000 C   0  0  0  0  0  0  0  0  0  0  0  0
   27.1474    8.8999    0.0000 C   0  0  0  0  0  0  0  0  0  0  0  0
   27.5831    7.4461    0.0000 C   0  0  0  0  0  0  0  0  0  0  0  0
   29.0601    7.0966    0.0000 C   0  0  0  0  0  0  0  0  0  0  0  0
   30.8117   11.1671    0.0000 C   0  0  0  0  0  0  0  0  0  0  0  0
   32.4617   11.3956    0.0000 C   0  0  0  0  0  0  0  0  0  0  0  0
  2  3  2  0  0  0  0
  3  4  1  0  0  0  0
  4  5  1  0  0  0  0
  5  6  1  0  0  0  0
  6  7  1  0  0  0  0
  2  7  1  0  0  0  0
  7  8  2  0  0  0  0
  1  4  1  0  0  0  0
  5  9  2  0  0  0  0
  2 10  1  0  0  0  0
 10 11  2  0  0  0  0
 11 12  1  0  0  0  0
 12 13  2  0  0  0  0
 12 14  1  0  0  0  0
 14 15  1  0  0  0  0
 15 16  1  0  0  0  0
 16 17  1  0  0  0  0
 17 18  1  0  0  0  0
 18 19  1  0  0  0  0
 19 20  1  0  0  0  0
 20 21  1  0  0  0  0
 21 22  1  0  0  0  0
 22 23  1  0  0  0  0
 22 24  2  0  0  0  0
 23 25  1  0  0  0  0
 25 26  1  0  0  0  0
 26 27  1  0  0  0  0
 27 28  1  0  0  0  0
 28 29  1  0  0  0  0
 28 30  2  0  0  0  0
 29 31  1  0  0  0  0
 31 32  1  0  0  0  0
 32 33  2  0  0  0  0
 34 35  2  0  0  0  0
 35 29  1  0  0  0  0
 32 36  1  0  0  0  0
 36 37  2  0  0  0  0
 37 38  1  0  0  0  0
 38 39  2  0  0  0  0
 39 33  1  0  0  0  0
 34 40  1  0  0  0  0
 40 41  2  0  0  0  0
 41 42  1  0  0  0  0
 42 43  2  0  0  0  0
 43 35  1  0  0  0  0
 34 44  1  0  0  0  0
 44 45  3  0  0  0  0
 45 33  1  0  0  0  0
A    1
R1
M  END

>  <symbol>
DBCOnC6ncee5U

>  <m_abbr>
DBCOnC6ncee5U

>  <m_type>
rna

>  <m_subtype>
natural

>  <m_RgroupIdx>
0

>  <m_Rgroups>
H

$$$$

MolEngine07221613482D

 18 18  0  0  0  0            999 V2000
    9.2333    2.2845    0.0000 C   0  0  0  0  0  0  0  0  0  0  0  0
    9.2331    3.8052    0.0000 C   0  0  0  0  0  0  0  0  0  0  0  0
   10.5518    4.5671    0.0000 C   0  0  0  0  0  0  0  0  0  0  0  0
   11.8708    3.8056    0.0000 N   0  0  0  0  0  0  0  0  0  0  0  0
   11.8710    2.2849    0.0000 C   0  0  0  0  0  0  0  0  0  0  0  0
   13.1873    1.5207    0.0000 O   0  0  0  0  0  0  0  0  0  0  0  0
   10.5516    6.0905    0.0000 N   0  0  0  0  0  0  0  0  0  0  0  0
   10.5523    1.5230    0.0000 N   0  0  0  0  0  0  0  0  0  0  0  0
    7.9140    4.5664    0.0000 C   0  0  0  0  0  0  0  0  0  0  0  0
   10.5525    0.0000    0.0000 R#  0  0  0  0  0  0  0  0  0  0  0  0
    9.2325    6.8518    0.0000 C   0  0  0  0  0  0  0  0  0  0  0  0
    7.9137    6.0901    0.0000 C   0  0  0  0  0  0  0  0  0  0  0  0
    6.5946    6.8514    0.0000 C   0  0  0  0  0  0  0  0  0  0  0  0
    5.2758    6.0897    0.0000 C   0  0  0  0  0  0  0  0  0  0  0  0
    3.9567    6.8510    0.0000 C   0  0  0  0  0  0  0  0  0  0  0  0
    2.6379    6.0893    0.0000 C   0  0  0  0  0  0  0  0  0  0  0  0
    1.3188    6.8506    0.0000 O   0  0  0  0  0  0  0  0  0  0  0  0
    0.0000    6.0889    0.0000 R#  0  0  0  0  0  0  0  0  0  0  0  0
  1  2  2  0  0  0  0
  2  3  1  0  0  0  0
  3  4  2  0  0  0  0
  4  5  1  0  0  0  0
  5  6  2  0  0  0  0
  3  7  1  0  0  0  0
  8  1  1  0  0  0  0
  8  5  1  0  0  0  0
  2  9  1  0  0  0  0
  8 10  1  0  0  0  0
  7 11  1  0  0  0  0
 11 12  1  0  0  0  0
 12 13  1  0  0  0  0
 13 14  1  0  0  0  0
 14 15  1  0  0  0  0
 15 16  1  0  0  0  0
 16 17  1  0  0  0  0
 17 18  1  0  0  0  0
A   10
R1
A   18
R2
M  END

>  <symbol>
oC64m5C

>  <m_abbr>
oC64m5C

>  <m_type>
rna

>  <m_subtype>
natural

>  <m_RgroupIdx>
9,17

>  <m_Rgroups>
H,H

$$$$

MolEngine07221613482D

 23 23  0  0  0  0            999 V2000
    9.2326    4.5653    0.0000 C   0  0  0  0  0  0  0  0  0  0  0  0
    7.9138    3.8036    0.0000 C   0  0  0  0  0  0  0  0  0  0  0  0
    6.5947    4.5649    0.0000 C   0  0  0  0  0  0  0  0  0  0  0  0
    5.2759    3.8032    0.0000 C   0  0  0  0  0  0  0  0  0  0  0  0
    3.9568    4.5645    0.0000 C   0  0  0  0  0  0  0  0  0  0  0  0
    2.6380    3.8028    0.0000 C   0  0  0  0  0  0  0  0  0  0  0  0
    1.3189    4.5641    0.0000 N   0  0  0  0  0  0  0  0  0  0  0  0
    0.0000    3.8024    0.0000 R#  0  0  0  0  0  0  0  0  0  0  0  0
    1.3189    6.0871    0.0000 R#  0  0  0  0  0  0  0  0  0  0  0  0
   15.8278    2.2845    0.0000 C   0  0  0  0  0  0  0  0  0  0  0  0
   15.8275    3.8052    0.0000 C   0  0  0  0  0  0  0  0  0  0  0  0
   17.1463    4.5671    0.0000 C   0  0  0  0  0  0  0  0  0  0  0  0
   18.4652    3.8056    0.0000 N   0  0  0  0  0  0  0  0  0  0  0  0
   18.4655    2.2849    0.0000 C   0  0  0  0  0  0  0  0  0  0  0  0
   19.7817    1.5207    0.0000 O   0  0  0  0  0  0  0  0  0  0  0  0
   17.1460    6.0905    0.0000 N   0  0  0  0  0  0  0  0  0  0  0  0
   17.1467    1.5230    0.0000 N   0  0  0  0  0  0  0  0  0  0  0  0
   14.5084    4.5664    0.0000 C   0  0  0  0  0  0  0  0  0  0  0  0
   17.1470    0.0000    0.0000 R#  0  0  0  0  0  0  0  0  0  0  0  0
   13.1896    3.8046    0.0000 C   0  0  0  0  0  0  0  0  0  0  0  0
   11.8705    4.5658    0.0000 C   0  0  0  0  0  0  0  0  0  0  0  0
   10.5517    3.8040    0.0000 N   0  0  0  0  0  0  0  0  0  0  0  0
   11.8705    6.0888    0.0000 O   0  0  0  0  0  0  0  0  0  0  0  0
 22  1  1  0  0  0  0
  1  2  1  0  0  0  0
  2  3  1  0  0  0  0
  3  4  1  0  0  0  0
  4  5  1  0  0  0  0
  5  6  1  0  0  0  0
  6  7  1  0  0  0  0
  7  8  1  0  0  0  0
  7  9  1  0  0  0  0
 10 11  2  0  0  0  0
 11 12  1  0  0  0  0
 12 13  2  0  0  0  0
 13 14  1  0  0  0  0
 14 15  2  0  0  0  0
 12 16  1  0  0  0  0
 17 10  1  0  0  0  0
 17 14  1  0  0  0  0
 11 18  1  0  0  0  0
 17 19  1  0  0  0  0
 18 20  2  0  0  0  0
 20 21  1  0  0  0  0
 21 22  1  0  0  0  0
 21 23  2  0  0  0  0
A    8
R2
A    9
R3
A   19
R1
M  END

>  <symbol>
nC6ncee5C

>  <m_abbr>
nC6ncee5C

>  <m_type>
rna

>  <m_subtype>
natural

>  <m_RgroupIdx>
18,7,8

>  <m_Rgroups>
H,H,H

$$$$

MolEngine07221613482D

 23 23  0  0  0  0            999 V2000
    9.2326    4.5653    0.0000 C   0  0  0  0  0  0  0  0  0  0  0  0
    7.9138    3.8036    0.0000 C   0  0  0  0  0  0  0  0  0  0  0  0
    6.5947    4.5649    0.0000 C   0  0  0  0  0  0  0  0  0  0  0  0
    5.2759    3.8032    0.0000 C   0  0  0  0  0  0  0  0  0  0  0  0
    3.9568    4.5645    0.0000 C   0  0  0  0  0  0  0  0  0  0  0  0
    2.6380    3.8028    0.0000 C   0  0  0  0  0  0  0  0  0  0  0  0
    1.3189    4.5641    0.0000 N   0  0  0  0  0  0  0  0  0  0  0  0
    0.0000    3.8024    0.0000 R#  0  0  0  0  0  0  0  0  0  0  0  0
    1.3189    6.0871    0.0000 R#  0  0  0  0  0  0  0  0  0  0  0  0
   15.8278    2.2845    0.0000 C   0  0  0  0  0  0  0  0  0  0  0  0
   15.8275    3.8052    0.0000 C   0  0  0  0  0  0  0  0  0  0  0  0
   17.1463    4.5671    0.0000 C   0  0  0  0  0  0  0  0  0  0  0  0
   18.4652    3.8056    0.0000 N   0  0  0  0  0  0  0  0  0  0  0  0
   18.4655    2.2849    0.0000 C   0  0  0  0  0  0  0  0  0  0  0  0
   19.7817    1.5207    0.0000 O   0  0  0  0  0  0  0  0  0  0  0  0
   17.1460    6.0905    0.0000 O   0  0  0  0  0  0  0  0  0  0  0  0
   17.1467    1.5230    0.0000 N   0  0  0  0  0  0  0  0  0  0  0  0
   14.5084    4.5664    0.0000 C   0  0  0  0  0  0  0  0  0  0  0  0
   17.1470    0.0000    0.0000 R#  0  0  0  0  0  0  0  0  0  0  0  0
   13.1896    3.8046    0.0000 C   0  0  0  0  0  0  0  0  0  0  0  0
   11.8705    4.5658    0.0000 C   0  0  0  0  0  0  0  0  0  0  0  0
   10.5517    3.8040    0.0000 N   0  0  0  0  0  0  0  0  0  0  0  0
   11.8705    6.0888    0.0000 O   0  0  0  0  0  0  0  0  0  0  0  0
 22  1  1  0  0  0  0
  1  2  1  0  0  0  0
  2  3  1  0  0  0  0
  3  4  1  0  0  0  0
  4  5  1  0  0  0  0
  5  6  1  0  0  0  0
  6  7  1  0  0  0  0
  7  8  1  0  0  0  0
  7  9  1  0  0  0  0
 10 11  2  0  0  0  0
 11 12  1  0  0  0  0
 12 13  1  0  0  0  0
 13 14  1  0  0  0  0
 14 15  2  0  0  0  0
 12 16  2  0  0  0  0
 17 10  1  0  0  0  0
 17 14  1  0  0  0  0
 11 18  1  0  0  0  0
 17 19  1  0  0  0  0
 18 20  2  0  0  0  0
 20 21  1  0  0  0  0
 21 22  1  0  0  0  0
 21 23  2  0  0  0  0
A    8
R2
A    9
R3
A   19
R1
M  END

>  <symbol>
nC6ncee5U

>  <m_abbr>
nC6ncee5U

>  <m_type>
rna

>  <m_subtype>
natural

>  <m_RgroupIdx>
18,7,8

>  <m_Rgroups>
H,H,H

$$$$

MolEngine07221613482D

 21 22  0  0  0  0            999 V2000
    8.3806    4.0169    0.0000 C   0  0  0  0  0  0  0  0  0  0  0  0
    6.8524    4.0265    0.0000 C   0  0  0  0  0  0  0  0  0  0  0  0
    6.0965    5.3548    0.0000 C   0  0  0  0  0  0  0  0  0  0  0  0
    4.5682    5.3644    0.0000 C   0  0  0  0  0  0  0  0  0  0  0  0
    3.8124    6.6927    0.0000 C   0  0  0  0  0  0  0  0  0  0  0  0
    2.2815    6.7069    0.0000 C   0  0  0  0  0  0  0  0  0  0  0  0
    1.5283    8.0306    0.0000 N   0  0  0  0  0  0  0  0  0  0  0  0
    0.0000    8.0402    0.0000 R#  0  0  0  0  0  0  0  0  0  0  0  0
    2.3010    9.3492    0.0000 R#  0  0  0  0  0  0  0  0  0  0  0  0
   12.9953    1.9068    0.0000 C   0  0  0  0  0  0  0  0  0  0  0  0
   13.0051    3.4297    0.0000 C   0  0  0  0  0  0  0  0  0  0  0  0
   11.5597    3.9096    0.0000 N   0  0  0  0  0  0  0  0  0  0  0  0
   10.6566    2.6833    0.0000 C   0  0  0  0  0  0  0  0  0  0  0  0
   11.5439    1.4454    0.0000 N   0  0  0  0  0  0  0  0  0  0  0  0
   14.3094    1.1368    0.0000 N   0  0  0  0  0  0  0  0  0  0  0  0
   15.6332    1.8898    0.0000 C   0  0  0  0  0  0  0  0  0  0  0  0
   15.6430    3.4128    0.0000 N   0  0  0  0  0  0  0  0  0  0  0  0
   14.3289    4.1827    0.0000 C   0  0  0  0  0  0  0  0  0  0  0  0
   14.3387    5.7057    0.0000 N   0  0  0  0  0  0  0  0  0  0  0  0
   11.0639    0.0000    0.0000 R#  0  0  0  0  0  0  0  0  0  0  0  0
    9.1336    2.6931    0.0000 N   0  0  0  0  0  0  0  0  0  0  0  0
 21  1  1  0  0  0  0
  1  2  1  0  0  0  0
  2  3  1  0  0  0  0
  3  4  1  0  0  0  0
  4  5  1  0  0  0  0
  5  6  1  0  0  0  0
  6  7  1  0  0  0  0
  7  8  1  0  0  0  0
  7  9  1  0  0  0  0
 10 11  2  0  0  0  0
 11 12  1  0  0  0  0
 12 13  2  0  0  0  0
 13 14  1  0  0  0  0
 14 10  1  0  0  0  0
 10 15  1  0  0  0  0
 15 16  2  0  0  0  0
 16 17  1  0  0  0  0
 17 18  2  0  0  0  0
 18 11  1  0  0  0  0
 18 19  1  0  0  0  0
 14 20  1  0  0  0  0
 13 21  1  0  0  0  0
A    8
R2
A    9
R3
A   20
R1
M  END

>  <symbol>
nC6n8A

>  <m_abbr>
nC6n8A

>  <m_type>
rna

>  <m_subtype>
natural

>  <m_RgroupIdx>
19,7,8

>  <m_Rgroups>
H,H,H

$$$$

MolEngine07221613482D

 21 22  0  0  0  0            999 V2000
    2.3306    1.9001    0.0000 C   0  0  0  0  0  0  0  0  0  0  0  0
    2.3404    3.4178    0.0000 C   0  0  0  0  0  0  0  0  0  0  0  0
    0.9000    3.8960    0.0000 N   0  0  0  0  0  0  0  0  0  0  0  0
    0.0000    2.6739    0.0000 C   0  0  0  0  0  0  0  0  0  0  0  0
    0.8842    1.4404    0.0000 N   0  0  0  0  0  0  0  0  0  0  0  0
    3.6401    1.1328    0.0000 N   0  0  0  0  0  0  0  0  0  0  0  0
    4.9593    1.8832    0.0000 C   0  0  0  0  0  0  0  0  0  0  0  0
    4.9691    3.4009    0.0000 N   0  0  0  0  0  0  0  0  0  0  0  0
    3.6596    4.1682    0.0000 C   0  0  0  0  0  0  0  0  0  0  0  0
    3.6694    5.6858    0.0000 O   0  0  0  0  0  0  0  0  0  0  0  0
    0.4060    0.0000    0.0000 R#  0  0  0  0  0  0  0  0  0  0  0  0
    6.2734    1.1132    0.0000 N   0  0  0  0  0  0  0  0  0  0  0  0
   16.8268    1.1164    0.0000 R#  0  0  0  0  0  0  0  0  0  0  0  0
   15.5022    3.3977    0.0000 R#  0  0  0  0  0  0  0  0  0  0  0  0
    7.5923    1.8747    0.0000 C   0  0  0  0  0  0  0  0  0  0  0  0
    8.9113    1.1132    0.0000 C   0  0  0  0  0  0  0  0  0  0  0  0
   10.2302    1.8747    0.0000 C   0  0  0  0  0  0  0  0  0  0  0  0
   11.5492    1.1132    0.0000 C   0  0  0  0  0  0  0  0  0  0  0  0
   12.8682    1.8747    0.0000 C   0  0  0  0  0  0  0  0  0  0  0  0
   14.1871    1.1132    0.0000 C   0  0  0  0  0  0  0  0  0  0  0  0
   15.5061    1.8747    0.0000 N   0  0  0  0  0  0  0  0  0  0  0  0
  1  2  2  0  0  0  0
  2  3  1  0  0  0  0
  3  4  2  0  0  0  0
  4  5  1  0  0  0  0
  5  1  1  0  0  0  0
  1  6  1  0  0  0  0
  6  7  2  0  0  0  0
  7  8  1  0  0  0  0
  8  9  1  0  0  0  0
  9  2  1  0  0  0  0
  9 10  2  0  0  0  0
  5 11  1  0  0  0  0
  7 12  1  0  0  0  0
 21 13  1  0  0  0  0
 21 14  1  0  0  0  0
 12 15  1  0  0  0  0
 15 16  1  0  0  0  0
 16 17  1  0  0  0  0
 17 18  1  0  0  0  0
 18 19  1  0  0  0  0
 19 20  1  0  0  0  0
 20 21  1  0  0  0  0
A   11
R1
A   13
R2
A   14
R3
M  END

>  <symbol>
nC6n2G

>  <m_abbr>
nC6n2G

>  <m_type>
rna

>  <m_subtype>
natural

>  <m_RgroupIdx>
10,12,13

>  <m_Rgroups>
H,H,H

$$$$

MolEngine07221613482D

 10 10  0  0  0  0            999 V2000
    4.0295    4.1942    0.0000 C   0  0  0  0  0  0  0  0  0  0  0  0
    4.4724    2.7370    0.0000 C   0  0  0  0  0  0  0  0  0  0  0  0
    5.9952    2.7080    0.0000 C   0  0  0  0  0  0  0  0  0  0  0  0
    6.4933    4.1473    0.0000 C   0  0  0  0  0  0  0  0  0  0  0  0
    5.2784    5.0657    0.0000 O   0  0  0  0  0  0  0  0  0  0  0  0
    2.5902    4.6923    0.0000 C   0  0  0  0  0  0  0  0  0  0  0  0
    3.5540    1.5221    0.0000 O   0  0  0  0  0  0  0  0  0  0  0  0
    1.4392    3.6949    0.0000 O   0  0  0  0  0  0  0  0  0  0  0  0
    0.0000    4.1930    0.0000 R#  0  0  0  0  0  0  0  0  0  0  0  0
    3.6047    0.0000    0.0000 R#  0  0  0  0  0  0  0  0  0  0  0  0
  1  2  1  0  0  0  0
  2  3  1  0  0  0  0
  3  4  1  0  0  0  0
  4  5  1  0  0  0  0
  5  1  1  0  0  0  0
  1  6  1  1  0  0  0
  2  7  1  6  0  0  0
  6  8  1  0  0  0  0
  8  9  1  0  0  0  0
  7 10  1  0  0  0  0
A    9
R1
A   10
R2
M  END

>  <symbol>
dSp

>  <m_abbr>
dSp

>  <m_type>
rna

>  <m_subtype>
natural

>  <m_RgroupIdx>
8,9

>  <m_Rgroups>
H,H

$$$$

MolEngine07221613482D

 12 12  0  0  0  0            999 V2000
    4.0284    4.1916    0.0000 C   0  0  0  0  0  0  0  0  0  0  0  0
    4.5050    2.7451    0.0000 C   0  0  0  0  0  0  0  0  0  0  0  0
    6.0280    2.7514    0.0000 C   0  0  0  0  0  0  0  0  0  0  0  0
    6.4926    4.2018    0.0000 C   0  0  0  0  0  0  0  0  0  0  0  0
    5.2568    5.0919    0.0000 O   0  0  0  0  0  0  0  0  0  0  0  0
    2.5780    4.6563    0.0000 C   0  0  0  0  0  0  0  0  0  0  0  0
    3.6149    1.5093    0.0000 O   0  0  0  0  0  0  0  0  0  0  0  0
    1.4504    3.6325    0.0000 O   0  0  0  0  0  0  0  0  0  0  0  0
    0.0000    4.0971    0.0000 R#  0  0  0  0  0  0  0  0  0  0  0  0
    6.9283    0.0000    0.0000 R#  0  0  0  0  0  0  0  0  0  0  0  0
    6.9283    1.5230    0.0000 O   0  0  0  0  0  0  0  0  0  0  0  0
    7.9391    4.6784    0.0000 R#  0  0  0  0  0  0  0  0  0  0  0  0
  1  2  1  0  0  0  0
  2  3  1  0  0  0  0
  3  4  1  0  0  0  0
  4  5  1  0  0  0  0
  5  1  1  0  0  0  0
  1  6  1  1  0  0  0
  2  7  1  6  0  0  0
  6  8  1  0  0  0  0
  8  9  1  0  0  0  0
  3 11  1  6  0  0  0
  4 12  1  1  0  0  0
 11 10  1  0  0  0  0
A    9
R1
A   10
R2
A   12
R3
M  END

>  <symbol>
25r

>  <m_abbr>
25r

>  <m_type>
rna

>  <m_subtype>
natural

>  <m_RgroupIdx>
8,9,11

>  <m_Rgroups>
H,H,OH

$$$$

MolEngine07221613482D

 12 12  0  0  0  0            999 V2000
    4.0295    4.1942    0.0000 C   0  0  0  0  0  0  0  0  0  0  0  0
    4.4725    2.7370    0.0000 C   0  0  0  0  0  0  0  0  0  0  0  0
    5.9952    2.7080    0.0000 C   0  0  0  0  0  0  0  0  0  0  0  0
    6.4933    4.1473    0.0000 C   0  0  0  0  0  0  0  0  0  0  0  0
    5.2784    5.0658    0.0000 S   0  0  0  0  0  0  0  0  0  0  0  0
    2.5902    4.6923    0.0000 C   0  0  0  0  0  0  0  0  0  0  0  0
    3.5540    1.5221    0.0000 O   0  0  0  0  0  0  0  0  0  0  0  0
    1.4392    3.6949    0.0000 O   0  0  0  0  0  0  0  0  0  0  0  0
    0.0000    4.1930    0.0000 R#  0  0  0  0  0  0  0  0  0  0  0  0
    3.6047    0.0000    0.0000 R#  0  0  0  0  0  0  0  0  0  0  0  0
    6.8668    1.4591    0.0000 O   0  0  0  0  0  0  0  0  0  0  0  0
    7.9505    4.5903    0.0000 R#  0  0  0  0  0  0  0  0  0  0  0  0
  1  2  1  0  0  0  0
  2  3  1  0  0  0  0
  3  4  1  0  0  0  0
  4  5  1  0  0  0  0
  5  1  1  0  0  0  0
  1  6  1  1  0  0  0
  2  7  1  6  0  0  0
  6  8  1  0  0  0  0
  8  9  1  0  0  0  0
  7 10  1  0  0  0  0
  3 11  1  6  0  0  0
  4 12  1  1  0  0  0
A    9
R1
A   10
R2
A   12
R3
M  END

>  <symbol>
s4r

>  <m_abbr>
s4r

>  <m_type>
rna

>  <m_subtype>
natural

>  <m_RgroupIdx>
8,9,11

>  <m_Rgroups>
H,H,OH

$$$$

MolEngine07221613482D

 28 28  0  0  0  0            999 V2000
    5.2516    8.6201    0.0000 O   0  0  0  0  0  0  0  0  0  0  0  0
    4.0237    7.7281    0.0000 C   0  0  0  0  0  0  0  0  0  0  0  0
    6.4794    7.7279    0.0000 C   0  0  0  0  0  0  0  0  0  0  0  0
    4.4925    6.2846    0.0000 C   0  0  0  0  0  0  0  0  0  0  0  0
    6.0103    6.2846    0.0000 C   0  0  0  0  0  0  0  0  0  0  0  0
    3.6004    5.0568    0.0000 O   0  0  0  0  0  0  0  0  0  0  0  0
    6.9023    5.0566    0.0000 O   0  0  0  0  0  0  0  0  0  0  0  0
    2.5803    8.1972    0.0000 C   0  0  0  0  0  0  0  0  0  0  0  0
    7.9228    8.1968    0.0000 R#  0  0  0  0  0  0  0  0  0  0  0  0
    4.2176    3.6703    0.0000 R#  0  0  0  0  0  0  0  0  0  0  0  0
    8.4117    5.2152    0.0000 C   0  0  0  0  0  0  0  0  0  0  0  0
    9.3037    3.9873    0.0000 C   0  0  0  0  0  0  0  0  0  0  0  0
   10.8131    4.1458    0.0000 O   0  0  0  0  0  0  0  0  0  0  0  0
   11.7051    2.9179    0.0000 C   0  0  0  0  0  0  0  0  0  0  0  0
   12.1234    1.4590    0.0000 C   0  0  0  0  0  0  0  0  0  0  0  0
   10.3410    2.2527    0.0000 C   0  0  0  0  0  0  0  0  0  0  0  0
   13.2145    3.0765    0.0000 C   0  0  0  0  0  0  0  0  0  0  0  0
   11.0690    0.3673    0.0000 F   0  0  0  0  0  0  0  0  0  0  0  0
   13.5960    1.0917    0.0000 F   0  0  0  0  0  0  0  0  0  0  0  0
   12.5416    0.0000    0.0000 F   0  0  0  0  0  0  0  0  0  0  0  0
   10.2350    0.7387    0.0000 F   0  0  0  0  0  0  0  0  0  0  0  0
    9.0828    3.1015    0.0000 F   0  0  0  0  0  0  0  0  0  0  0  0
    8.9768    1.5874    0.0000 F   0  0  0  0  0  0  0  0  0  0  0  0
   13.8319    4.4629    0.0000 F   0  0  0  0  0  0  0  0  0  0  0  0
   14.7239    3.2350    0.0000 F   0  0  0  0  0  0  0  0  0  0  0  0
   14.1065    1.8486    0.0000 F   0  0  0  0  0  0  0  0  0  0  0  0
    1.4484    7.1781    0.0000 O   0  0  0  0  0  0  0  0  0  0  0  0
    0.0000    7.6489    0.0000 R#  0  0  0  0  0  0  0  0  0  0  0  0
  1  2  1  0  0  0  0
  1  3  1  0  0  0  0
  2  4  1  0  0  0  0
  2  8  1  1  0  0  0
  3  5  1  0  0  0  0
  3  9  1  1  0  0  0
  4  5  1  0  0  0  0
  4  6  1  6  0  0  0
  5  7  1  6  0  0  0
  6 10  1  0  0  0  0
  7 11  1  0  0  0  0
 11 12  1  0  0  0  0
 12 13  1  0  0  0  0
 13 14  1  0  0  0  0
 14 15  1  0  0  0  0
 14 16  1  0  0  0  0
 14 17  1  0  0  0  0
 15 18  1  0  0  0  0
 15 19  1  0  0  0  0
 15 20  1  0  0  0  0
 16 21  1  0  0  0  0
 16 22  1  0  0  0  0
 16 23  1  0  0  0  0
 17 24  1  0  0  0  0
 17 25  1  0  0  0  0
 17 26  1  0  0  0  0
  8 27  1  0  0  0  0
 27 28  1  0  0  0  0
A    9
R3
A   10
R2
A   28
R1
M  END

>  <symbol>
cf33moe

>  <m_abbr>
cf33moe

>  <m_type>
rna

>  <m_subtype>
natural

>  <m_RgroupIdx>
27,9,8

>  <m_Rgroups>
H,H,OH

$$$$

MolEngine07221613482D

 13 14  0  0  0  0            999 V2000
    3.6219    2.6695    0.0000 C   0  0  0  0  0  0  0  0  0  0  0  0
    5.9564    1.3679    0.0000 O   0  0  0  0  0  0  0  0  0  0  0  0
    4.0690    4.2992    0.0000 C   0  0  0  0  0  0  0  0  0  0  0  0
    4.4394    2.8219    0.0000 C   0  0  0  0  0  0  0  0  0  0  0  0
    5.9777    2.8086    0.0000 C   0  0  0  0  0  0  0  0  0  0  0  0
    6.5295    4.2595    0.0000 C   0  0  0  0  0  0  0  0  0  0  0  0
    5.3626    5.2365    0.0000 O   0  0  0  0  0  0  0  0  0  0  0  0
    3.9159    1.5230    0.0000 O   0  0  0  0  0  0  0  0  0  0  0  0
    2.6378    4.8201    0.0000 C   0  0  0  0  0  0  0  0  0  0  0  0
    8.0047    4.6381    0.0000 R#  0  0  0  0  0  0  0  0  0  0  0  0
    1.4711    3.8411    0.0000 O   0  0  0  0  0  0  0  0  0  0  0  0
    0.0000    4.2353    0.0000 R#  0  0  0  0  0  0  0  0  0  0  0  0
    3.9159    0.0000    0.0000 R#  0  0  0  0  0  0  0  0  0  0  0  0
  1  2  1  0  0  0  0
  3  4  1  0  0  0  0
  4  5  1  0  0  0  0
  5  6  1  0  0  0  0
  6  7  1  0  0  0  0
  7  3  1  0  0  0  0
  4  8  1  6  0  0  0
  3  9  1  1  0  0  0
  6 10  1  1  0  0  0
  9 11  1  0  0  0  0
  3  1  1  6  0  0  0
  5  2  1  6  0  0  0
 11 12  1  0  0  0  0
  8 13  1  0  0  0  0
A   10
R3
A   12
R1
A   13
R2
M  END

>  <symbol>
lna

>  <m_abbr>
lna

>  <m_type>
rna

>  <m_subtype>
natural

>  <m_RgroupIdx>
11,12,9

>  <m_Rgroups>
H,H,OH

$$$$

MolEngine07221613482D

 16 16  0  0  0  0            999 V2000
    4.0295    7.3040    0.0000 C   0  0  0  0  0  0  0  0  0  0  0  0
    4.4725    5.8469    0.0000 C   0  0  0  0  0  0  0  0  0  0  0  0
    5.9952    5.8179    0.0000 C   0  0  0  0  0  0  0  0  0  0  0  0
    6.4933    7.2572    0.0000 C   0  0  0  0  0  0  0  0  0  0  0  0
    5.2784    8.1756    0.0000 O   0  0  0  0  0  0  0  0  0  0  0  0
    2.5902    7.8022    0.0000 C   0  0  0  0  0  0  0  0  0  0  0  0
    3.5540    4.6320    0.0000 O   0  0  0  0  0  0  0  0  0  0  0  0
    1.4392    6.8048    0.0000 O   0  0  0  0  0  0  0  0  0  0  0  0
    0.0000    7.3029    0.0000 R#  0  0  0  0  0  0  0  0  0  0  0  0
    3.6047    3.1099    0.0000 R#  0  0  0  0  0  0  0  0  0  0  0  0
    6.8668    4.5690    0.0000 O   0  0  0  0  0  0  0  0  0  0  0  0
    7.9504    7.7001    0.0000 R#  0  0  0  0  0  0  0  0  0  0  0  0
    6.8668    3.0460    0.0000 C   0  0  0  0  0  0  0  0  0  0  0  0
    8.1857    2.2845    0.0000 C   0  0  0  0  0  0  0  0  0  0  0  0
    8.1857    0.7615    0.0000 O   0  0  0  0  0  0  0  0  0  0  0  0
    9.5047    0.0000    0.0000 C   0  0  0  0  0  0  0  0  0  0  0  0
  1  2  1  0  0  0  0
  2  3  1  0  0  0  0
  3  4  1  0  0  0  0
  4  5  1  0  0  0  0
  5  1  1  0  0  0  0
  1  6  1  1  0  0  0
  2  7  1  6  0  0  0
  6  8  1  0  0  0  0
  8  9  1  0  0  0  0
  7 10  1  0  0  0  0
  3 11  1  6  0  0  0
  4 12  1  1  0  0  0
 11 13  1  0  0  0  0
 13 14  1  0  0  0  0
 14 15  1  0  0  0  0
 15 16  1  0  0  0  0
A    9
R1
A   10
R2
A   12
R3
M  END

>  <symbol>
moe

>  <m_abbr>
moe

>  <m_type>
rna

>  <m_subtype>
natural

>  <m_RgroupIdx>
8,9,11

>  <m_Rgroups>
H,H,OH

$$$$
2-(methylamino)ethanol (PHONA sugar)
MolEngine07221613482D

  8  7  0  0  0  0            999 V2000
    2.3394    1.2000    0.0000 N   0  0  0  0  0  0  0  0  0  0  0  0
    1.0394    1.9500    0.0000 C   0  0  0  0  0  0  0  0  0  0  0  0
    0.0000    1.3503    0.0000 R#  0  0  0  0  0  0  0  0  0  0  0  0
    3.6394    1.9500    0.0000 C   0  0  0  0  0  0  0  0  0  0  0  0
    4.9394    1.2000    0.0000 C   0  0  0  0  0  0  0  0  0  0  0  0
    6.2394    1.9500    0.0000 O   0  0  0  0  0  0  0  0  0  0  0  0
    7.2788    1.3503    0.0000 R#  0  0  0  0  0  0  0  0  0  0  0  0
    2.3394    0.0000    0.0000 R#  0  0  0  0  0  0  0  0  0  0  0  0
  1  2  1  0  0  0  0
  2  3  1  0  0  0  0
  1  4  1  0  0  0  0
  4  5  1  0  0  0  0
  5  6  1  0  0  0  0
  6  7  1  0  0  0  0
  1  8  1  0  0  0  0
A    3
R2
A    7
R1
A    8
R3
M  END

>  <symbol>
PONA

>  <m_abbr>
PONA

>  <m_type>
rna

>  <m_subtype>
natural

>  <m_RgroupIdx>
6,2,7

>  <m_Rgroups>
H,H,H

$$$$

MolEngine07221613482D

 12 12  0  0  0  0            999 V2000
    4.0295    4.1942    0.0000 C   0  0  0  0  0  0  0  0  0  0  0  0
    4.4724    2.7370    0.0000 C   0  0  0  0  0  0  0  0  0  0  0  0
    5.9952    2.7081    0.0000 C   0  0  0  0  0  0  0  0  0  0  0  0
    6.4933    4.1473    0.0000 C   0  0  0  0  0  0  0  0  0  0  0  0
    5.2784    5.0658    0.0000 O   0  0  0  0  0  0  0  0  0  0  0  0
    2.5902    4.6923    0.0000 C   0  0  0  0  0  0  0  0  0  0  0  0
    3.5540    1.5222    0.0000 O   0  0  0  0  0  0  0  0  0  0  0  0
    1.4392    3.6949    0.0000 O   0  0  0  0  0  0  0  0  0  0  0  0
    0.0000    4.1930    0.0000 R#  0  0  0  0  0  0  0  0  0  0  0  0
    3.6047    0.0000    0.0000 R#  0  0  0  0  0  0  0  0  0  0  0  0
    6.8667    1.4591    0.0000 O   0  0  0  0  0  0  0  0  0  0  0  0
    7.9504    4.5903    0.0000 R#  0  0  0  0  0  0  0  0  0  0  0  0
  1  2  1  0  0  0  0
  2  3  1  0  0  0  0
  3  4  1  0  0  0  0
  4  5  1  0  0  0  0
  5  1  1  0  0  0  0
  1  6  1  1  0  0  0
  2  7  1  6  0  0  0
  6  8  1  0  0  0  0
  8  9  1  0  0  0  0
  7 10  1  0  0  0  0
  3 11  1  6  0  0  0
  4 12  1  1  0  0  0
A    9
R1
A   10
R2
A   12
R3
M  END

>  <symbol>
r

>  <m_abbr>
r

>  <m_type>
rna

>  <m_subtype>
natural

>  <m_RgroupIdx>
8,9,11

>  <m_Rgroups>
H,H,OH

$$$$
R Propanetriol (GNA sugar)
MolEngine07221613482D

  8  7  0  0  0  0            999 V2000
    2.3394    2.0994    0.0000 C   0  0  0  0  0  0  0  0  0  0  0  0
    1.0394    2.8494    0.0000 C   0  0  0  0  0  0  0  0  0  0  0  0
    0.0000    2.2497    0.0000 R#  0  0  0  0  0  0  0  0  0  0  0  0
    2.3425    0.5986    0.0000 O   0  0  0  0  0  0  0  0  0  0  0  0
    3.3826    0.0000    0.0000 R#  0  0  0  0  0  0  0  0  0  0  0  0
    3.6394    2.8494    0.0000 C   0  0  0  0  0  0  0  0  0  0  0  0
    4.9394    2.0994    0.0000 O   0  0  0  0  0  0  0  0  0  0  0  0
    5.9788    2.6991    0.0000 R#  0  0  0  0  0  0  0  0  0  0  0  0
  1  2  1  6  0  0  0
  2  3  1  0  0  0  0
  1  4  1  0  0  0  0
  4  5  1  0  0  0  0
  1  6  1  0  0  0  0
  6  7  1  0  0  0  0
  7  8  1  0  0  0  0
A    3
R3
A    5
R2
A    8
R1
M  END

>  <symbol>
Rgna

>  <m_abbr>
Rgna

>  <m_type>
rna

>  <m_subtype>
natural

>  <m_RgroupIdx>
7,4,2

>  <m_Rgroups>
H,H,O

$$$$
S Propanetriol (GNA sugar)
MolEngine07221613482D

  8  7  0  0  0  0            999 V2000
    2.3394    2.0994    0.0000 C   0  0  0  0  0  0  0  0  0  0  0  0
    1.0394    2.8494    0.0000 C   0  0  0  0  0  0  0  0  0  0  0  0
    0.0000    2.2497    0.0000 R#  0  0  0  0  0  0  0  0  0  0  0  0
    2.3425    0.5986    0.0000 O   0  0  0  0  0  0  0  0  0  0  0  0
    3.3826    0.0000    0.0000 R#  0  0  0  0  0  0  0  0  0  0  0  0
    3.6394    2.8494    0.0000 C   0  0  0  0  0  0  0  0  0  0  0  0
    4.9394    2.0994    0.0000 O   0  0  0  0  0  0  0  0  0  0  0  0
    5.9788    2.6991    0.0000 R#  0  0  0  0  0  0  0  0  0  0  0  0
  1  2  1  1  0  0  0
  2  3  1  0  0  0  0
  1  4  1  0  0  0  0
  4  5  1  0  0  0  0
  1  6  1  0  0  0  0
  6  7  1  0  0  0  0
  7  8  1  0  0  0  0
A    3
R3
A    5
R2
A    8
R1
M  END

>  <symbol>
Sgna

>  <m_abbr>
Sgna

>  <m_type>
rna

>  <m_subtype>
natural

>  <m_RgroupIdx>
7,4,2

>  <m_Rgroups>
H,H,O

$$$$

MolEngine07221613482D

 12 11  0  0  0  0            999 V2000
    4.0283    4.1951    0.0000 C   0  0  0  0  0  0  0  0  0  0  0  0
    4.3987    2.7178    0.0000 C   0  0  0  0  0  0  0  0  0  0  0  0
    5.9369    2.7046    0.0000 C   0  0  0  0  0  0  0  0  0  0  0  0
    6.4886    4.1554    0.0000 C   0  0  0  0  0  0  0  0  0  0  0  0
    5.3233    5.1315    0.0000 O   0  0  0  0  0  0  0  0  0  0  0  0
    3.4562    1.5230    0.0000 O   0  0  0  0  0  0  0  0  0  0  0  0
    6.7541    1.4154    0.0000 O   0  0  0  0  0  0  0  0  0  0  0  0
    2.5974    4.7158    0.0000 C   0  0  0  0  0  0  0  0  0  0  0  0
    7.9637    4.5338    0.0000 R#  0  0  0  0  0  0  0  0  0  0  0  0
    1.4330    3.7318    0.0000 O   0  0  0  0  0  0  0  0  0  0  0  0
    0.0000    4.2476    0.0000 R#  0  0  0  0  0  0  0  0  0  0  0  0
    3.4562    0.0000    0.0000 R#  0  0  0  0  0  0  0  0  0  0  0  0
  1  2  1  0  0  0  0
  3  4  1  0  0  0  0
  4  5  1  0  0  0  0
  1  5  1  1  0  0  0
  2  6  1  0  0  0  0
  3  7  1  0  0  0  0
  1  8  1  0  0  0  0
  4  9  1  1  0  0  0
  8 10  1  0  0  0  0
 10 11  1  0  0  0  0
  6 12  1  0  0  0  0
A    9
R3
A   11
R1
A   12
R2
M  END

>  <symbol>
una

>  <m_abbr>
una

>  <m_type>
rna

>  <m_subtype>
natural

>  <m_RgroupIdx>
10,11,8

>  <m_Rgroups>
H,H,OH

$$$$

MolEngine07221613482D

 12 12  0  0  0  0            999 V2000
    4.0295    4.1942    0.0000 C   0  0  0  0  0  0  0  0  0  0  0  0
    4.4724    2.7370    0.0000 C   0  0  0  0  0  0  0  0  0  0  0  0
    5.9952    2.7081    0.0000 C   0  0  0  0  0  0  0  0  0  0  0  0
    6.4933    4.1473    0.0000 C   0  0  0  0  0  0  0  0  0  0  0  0
    5.2784    5.0658    0.0000 O   0  0  0  0  0  0  0  0  0  0  0  0
    2.5902    4.6923    0.0000 C   0  0  0  0  0  0  0  0  0  0  0  0
    3.5540    1.5222    0.0000 O   0  0  0  0  0  0  0  0  0  0  0  0
    1.4392    3.6949    0.0000 O   0  0  0  0  0  0  0  0  0  0  0  0
    0.0000    4.1930    0.0000 R#  0  0  0  0  0  0  0  0  0  0  0  0
    3.6047    0.0000    0.0000 R#  0  0  0  0  0  0  0  0  0  0  0  0
    6.8667    1.4591    0.0000 F   0  0  0  0  0  0  0  0  0  0  0  0
    7.9504    4.5903    0.0000 R#  0  0  0  0  0  0  0  0  0  0  0  0
  1  2  1  0  0  0  0
  2  3  1  0  0  0  0
  3  4  1  0  0  0  0
  4  5  1  0  0  0  0
  5  1  1  0  0  0  0
  1  6  1  1  0  0  0
  2  7  1  6  0  0  0
  6  8  1  0  0  0  0
  8  9  1  0  0  0  0
  7 10  1  0  0  0  0
  3 11  1  1  0  0  0
  4 12  1  1  0  0  0
A    9
R1
A   10
R2
A   12
R3
M  END

>  <symbol>
fana

>  <m_abbr>
fana

>  <m_type>
rna

>  <m_subtype>
natural

>  <m_RgroupIdx>
8,9,11

>  <m_Rgroups>
H,H,OH

$$$$

MolEngine07221613482D

 12 12  0  0  0  0            999 V2000
    4.0295    4.1942    0.0000 C   0  0  0  0  0  0  0  0  0  0  0  0
    4.4724    2.7370    0.0000 C   0  0  0  0  0  0  0  0  0  0  0  0
    5.9952    2.7080    0.0000 C   0  0  0  0  0  0  0  0  0  0  0  0
    6.4933    4.1473    0.0000 C   0  0  0  0  0  0  0  0  0  0  0  0
    5.2784    5.0657    0.0000 O   0  0  0  0  0  0  0  0  0  0  0  0
    2.5902    4.6923    0.0000 C   0  0  0  0  0  0  0  0  0  0  0  0
    3.5540    1.5221    0.0000 N   0  0  0  0  0  0  0  0  0  0  0  0
    1.4392    3.6949    0.0000 O   0  0  0  0  0  0  0  0  0  0  0  0
    0.0000    4.1930    0.0000 R#  0  0  0  0  0  0  0  0  0  0  0  0
    3.6047    0.0000    0.0000 R#  0  0  0  0  0  0  0  0  0  0  0  0
    7.9504    4.5903    0.0000 R#  0  0  0  0  0  0  0  0  0  0  0  0
    6.8668    1.4591    0.0000 O   0  0  0  0  0  0  0  0  0  0  0  0
  1  2  1  0  0  0  0
  2  3  1  0  0  0  0
  3  4  1  0  0  0  0
  4  5  1  0  0  0  0
  5  1  1  0  0  0  0
  1  6  1  1  0  0  0
  2  7  1  6  0  0  0
  6  8  1  0  0  0  0
  8  9  1  0  0  0  0
  7 10  1  0  0  0  0
  4 11  1  1  0  0  0
  3 12  1  6  0  0  0
A    9
R1
A   10
R2
A   11
R3
M  END

>  <symbol>
n3r

>  <m_abbr>
n3r

>  <m_type>
rna

>  <m_subtype>
natural

>  <m_RgroupIdx>
8,9,10

>  <m_Rgroups>
H,H,OH

$$$$

MolEngine07221613482D

 11 11  0  0  0  0            999 V2000
    4.0295    4.1942    0.0000 C   0  0  0  0  0  0  0  0  0  0  0  0
    4.4724    2.7370    0.0000 C   0  0  0  0  0  0  0  0  0  0  0  0
    5.9952    2.7081    0.0000 C   0  0  0  0  0  0  0  0  0  0  0  0
    6.4933    4.1473    0.0000 C   0  0  0  0  0  0  0  0  0  0  0  0
    5.2784    5.0658    0.0000 O   0  0  0  0  0  0  0  0  0  0  0  0
    2.5902    4.6923    0.0000 C   0  0  0  0  0  0  0  0  0  0  0  0
    3.5540    1.5222    0.0000 O   0  0  0  0  0  0  0  0  0  0  0  0
    1.4392    3.6949    0.0000 O   0  0  0  0  0  0  0  0  0  0  0  0
    0.0000    4.1930    0.0000 R#  0  0  0  0  0  0  0  0  0  0  0  0
    3.6047    0.0000    0.0000 R#  0  0  0  0  0  0  0  0  0  0  0  0
    7.9504    4.5903    0.0000 R#  0  0  0  0  0  0  0  0  0  0  0  0
  1  2  1  0  0  0  0
  2  3  1  0  0  0  0
  3  4  1  0  0  0  0
  4  5  1  0  0  0  0
  5  1  1  0  0  0  0
  1  6  1  1  0  0  0
  2  7  1  6  0  0  0
  6  8  1  0  0  0  0
  8  9  1  0  0  0  0
  7 10  1  0  0  0  0
  4 11  1  1  0  0  0
A    9
R1
A   10
R2
A   11
R3
M  END

>  <symbol>
d

>  <m_abbr>
d

>  <m_type>
rna

>  <m_subtype>
natural

>  <m_RgroupIdx>
8,9,10

>  <m_Rgroups>
H,H,OH

$$$$

MolEngine07221613482D

 14 15  0  0  0  0            999 V2000
    3.6980    2.7456    0.0000 C   0  0  0  0  0  0  0  0  0  0  0  0
    4.6270    1.6741    0.0000 C   0  0  0  0  0  0  0  0  0  0  0  0
    5.9961    1.3679    0.0000 O   0  0  0  0  0  0  0  0  0  0  0  0
    4.0690    4.2992    0.0000 C   0  0  0  0  0  0  0  0  0  0  0  0
    4.4394    2.8220    0.0000 C   0  0  0  0  0  0  0  0  0  0  0  0
    5.9777    2.8086    0.0000 C   0  0  0  0  0  0  0  0  0  0  0  0
    6.5295    4.2596    0.0000 C   0  0  0  0  0  0  0  0  0  0  0  0
    5.3626    5.2365    0.0000 O   0  0  0  0  0  0  0  0  0  0  0  0
    3.9159    1.5230    0.0000 O   0  0  0  0  0  0  0  0  0  0  0  0
    2.6378    4.8201    0.0000 C   0  0  0  0  0  0  0  0  0  0  0  0
    8.0047    4.6381    0.0000 R#  0  0  0  0  0  0  0  0  0  0  0  0
    1.4711    3.8412    0.0000 O   0  0  0  0  0  0  0  0  0  0  0  0
    0.0000    4.2353    0.0000 R#  0  0  0  0  0  0  0  0  0  0  0  0
    3.9159    0.0000    0.0000 R#  0  0  0  0  0  0  0  0  0  0  0  0
  2  1  1  0  0  0  0
  4  5  1  0  0  0  0
  5  6  1  0  0  0  0
  6  7  1  0  0  0  0
  7  8  1  0  0  0  0
  8  4  1  0  0  0  0
  5  9  1  6  0  0  0
  4 10  1  1  0  0  0
  7 11  1  1  0  0  0
 10 12  1  0  0  0  0
  4  1  1  6  0  0  0
  6  3  1  6  0  0  0
 12 13  1  0  0  0  0
  9 14  1  0  0  0  0
  3  2  1  0  0  0  0
A   11
R3
A   13
R1
A   14
R2
M  END

>  <symbol>
ena

>  <m_abbr>
ena

>  <m_type>
rna

>  <m_subtype>
natural

>  <m_RgroupIdx>
12,13,10

>  <m_Rgroups>
H,H,OH

$$$$

MolEngine07221613482D

 12 12  0  0  0  0            999 V2000
    4.0765    4.7398    0.0000 O   0  0  0  0  0  0  0  0  0  0  0  0
    2.8561    3.8676    0.0000 C   0  0  0  0  0  0  0  0  0  0  0  0
    5.2831    3.8486    0.0000 C   0  0  0  0  0  0  0  0  0  0  0  0
    3.3084    2.4375    0.0000 C   0  0  0  0  0  0  0  0  0  0  0  0
    4.8083    2.4257    0.0000 C   0  0  0  0  0  0  0  0  0  0  0  0
    2.4157    1.2342    0.0000 O   0  0  0  0  0  0  0  0  0  0  0  0
    5.5060    1.4493    0.0000 F   0  0  0  0  0  0  0  0  0  0  0  0
    1.4359    4.3448    0.0000 C   0  0  0  0  0  0  0  0  0  0  0  0
    6.4272    4.2104    0.0000 R#  0  0  0  0  0  0  0  0  0  0  0  0
    1.1375    5.8156    0.0000 O   0  0  0  0  0  0  0  0  0  0  0  0
    0.0000    6.1978    0.0000 R#  0  0  0  0  0  0  0  0  0  0  0  0
    2.4039    0.0000    0.0000 R#  0  0  0  0  0  0  0  0  0  0  0  0
  1  2  1  0  0  0  0
  1  3  1  0  0  0  0
  2  4  1  0  0  0  0
  2  8  1  1  0  0  0
  3  5  1  0  0  0  0
  3  9  1  1  0  0  0
  4  5  1  0  0  0  0
  4  6  1  6  0  0  0
  5  7  1  6  0  0  0
  6 12  1  0  0  0  0
  8 10  1  0  0  0  0
 10 11  1  0  0  0  0
A    9
R3
A   11
R1
A   12
R2
M  END

>  <symbol>
fl2r

>  <m_abbr>
fl2r

>  <m_type>
rna

>  <m_subtype>
natural

>  <m_RgroupIdx>
10,11,8

>  <m_Rgroups>
H,H,OH

$$$$
hexitol
MolEngine07221613482D

 12 12  0  0  0  0            999 V2000
    3.6373    0.7500    0.0000 O   0  0  0  0  0  0  0  0  0  0  0  0
    3.6373    2.2500    0.0000 C   0  0  0  0  0  0  0  0  0  0  0  0
    2.3383    3.0000    0.0000 C   0  0  0  0  0  0  0  0  0  0  0  0
    1.0393    2.2500    0.0000 C   0  0  0  0  0  0  0  0  0  0  0  0
    1.0393    0.7500    0.0000 C   0  0  0  0  0  0  0  0  0  0  0  0
    2.3383    0.0000    0.0000 C   0  0  0  0  0  0  0  0  0  0  0  0
    4.9386    2.9978    0.0000 C   0  0  0  0  0  0  0  0  0  0  0  0
    6.2373    2.2455    0.0000 O   0  0  0  0  0  0  0  0  0  0  0  0
    7.2778    2.8434    0.0000 R#  0  0  0  0  0  0  0  0  0  0  0  0
    2.3414    4.5008    0.0000 O   0  0  0  0  0  0  0  0  0  0  0  0
    0.0000    0.1500    0.0000 R#  0  0  0  0  0  0  0  0  0  0  0  0
    3.3815    5.0994    0.0000 R#  0  0  0  0  0  0  0  0  0  0  0  0
  1  2  1  0  0  0  0
  2  3  1  0  0  0  0
  3  4  1  0  0  0  0
  4  5  1  0  0  0  0
  5  6  1  0  0  0  0
  1  6  1  0  0  0  0
  2  7  1  1  0  0  0
  7  8  1  0  0  0  0
  8  9  1  0  0  0  0
  3 10  1  6  0  0  0
  5 11  1  1  0  0  0
 10 12  1  0  0  0  0
A    9
R1
A   11
R3
A   12
R2
M  END

>  <symbol>
hna

>  <m_abbr>
hna

>  <m_type>
rna

>  <m_subtype>
natural

>  <m_RgroupIdx>
8,11,10

>  <m_Rgroups>
H,H,OH

$$$$

MolEngine07221613482D

 13 14  0  0  0  0            999 V2000
    3.9458    4.2992    0.0000 C   0  0  0  0  0  0  0  0  0  0  0  0
    4.3162    2.8219    0.0000 C   0  0  0  0  0  0  0  0  0  0  0  0
    5.8546    2.8085    0.0000 C   0  0  0  0  0  0  0  0  0  0  0  0
    6.4064    4.2595    0.0000 C   0  0  0  0  0  0  0  0  0  0  0  0
    5.2394    5.2364    0.0000 O   0  0  0  0  0  0  0  0  0  0  0  0
    3.7928    1.5230    0.0000 O   0  0  0  0  0  0  0  0  0  0  0  0
    7.8816    4.6381    0.0000 R#  0  0  0  0  0  0  0  0  0  0  0  0
    3.7928    0.0000    0.0000 R#  0  0  0  0  0  0  0  0  0  0  0  0
    3.9318    5.3775    0.0000 C   0  0  0  0  0  0  0  0  0  0  0  0
    5.8031    3.9370    0.0000 O   0  0  0  0  0  0  0  0  0  0  0  0
    2.4355    4.1028    0.0000 C   0  0  0  0  0  0  0  0  0  0  0  0
    1.5103    5.3125    0.0000 O   0  0  0  0  0  0  0  0  0  0  0  0
    0.0000    5.1161    0.0000 R#  0  0  0  0  0  0  0  0  0  0  0  0
  1  2  1  0  0  0  0
  2  3  1  0  0  0  0
  3  4  1  0  0  0  0
  4  5  1  0  0  0  0
  5  1  1  0  0  0  0
  2  6  1  1  0  0  0
  4  7  1  1  0  0  0
  6  8  1  0  0  0  0
  1  9  1  1  0  0  0
  3 10  1  1  0  0  0
  9 10  1  0  0  0  0
  1 11  1  6  0  0  0
 11 12  1  0  0  0  0
 12 13  1  0  0  0  0
A    7
R3
A    8
R2
A   13
R1
M  END

>  <symbol>
ALlna

>  <m_abbr>
ALlna

>  <m_type>
rna

>  <m_subtype>
natural

>  <m_RgroupIdx>
12,7,6

>  <m_Rgroups>
H,H,OH

$$$$

MolEngine07221613482D

 13 13  0  0  0  0            999 V2000
    3.9167    4.1935    0.0000 C   0  0  0  0  0  0  0  0  0  0  0  0
    4.2872    2.7162    0.0000 C   0  0  0  0  0  0  0  0  0  0  0  0
    5.8255    2.7029    0.0000 C   0  0  0  0  0  0  0  0  0  0  0  0
    6.3773    4.1538    0.0000 C   0  0  0  0  0  0  0  0  0  0  0  0
    5.2104    5.1307    0.0000 O   0  0  0  0  0  0  0  0  0  0  0  0
    3.3407    1.5230    0.0000 O   0  0  0  0  0  0  0  0  0  0  0  0
    2.4856    4.7144    0.0000 C   0  0  0  0  0  0  0  0  0  0  0  0
    7.8525    4.5324    0.0000 R#  0  0  0  0  0  0  0  0  0  0  0  0
    1.3189    3.7354    0.0000 O   0  0  0  0  0  0  0  0  0  0  0  0
    0.0000    4.4969    0.0000 R#  0  0  0  0  0  0  0  0  0  0  0  0
    3.3407    0.0000    0.0000 R#  0  0  0  0  0  0  0  0  0  0  0  0
    6.4315    1.3056    0.0000 O   0  0  0  0  0  0  0  0  0  0  0  0
    7.9445    1.1317    0.0000 C   0  0  0  0  0  0  0  0  0  0  0  0
 12 13  1  0  0  0  0
  1  2  1  0  0  0  0
  2  3  1  0  0  0  0
  3  4  1  0  0  0  0
  4  5  1  0  0  0  0
  5  1  1  0  0  0  0
  2  6  1  6  0  0  0
  3 12  1  6  0  0  0
  1  7  1  1  0  0  0
  4  8  1  1  0  0  0
  7  9  1  0  0  0  0
  9 10  1  0  0  0  0
  6 11  1  0  0  0  0
A    8
R3
A   10
R1
A   11
R2
M  END

>  <symbol>
m

>  <m_abbr>
m

>  <m_type>
rna

>  <m_subtype>
natural

>  <m_RgroupIdx>
9,10,7

>  <m_Rgroups>
H,H,OH

$$$$

MolEngine07221613482D

 11 11  0  0  0  0            999 V2000
    3.7219    4.2640    0.0000 O   0  0  0  0  0  0  0  0  0  0  0  0
    2.4149    3.4820    0.0000 C   0  0  0  0  0  0  0  0  0  0  0  0
    2.4387    1.9592    0.0000 C   0  0  0  0  0  0  0  0  0  0  0  0
    3.7693    1.2183    0.0000 N   0  0  0  0  0  0  0  0  0  0  0  0
    5.0763    2.0004    0.0000 C   0  0  0  0  0  0  0  0  0  0  0  0
    5.0525    3.5232    0.0000 C   0  0  0  0  0  0  0  0  0  0  0  0
    1.0850    4.2259    0.0000 C   0  0  0  0  0  0  0  0  0  0  0  0
    6.0981    4.1488    0.0000 R#  0  0  0  0  0  0  0  0  0  0  0  0
    1.0634    5.7497    0.0000 O   0  0  0  0  0  0  0  0  0  0  0  0
    0.0000    6.3446    0.0000 R#  0  0  0  0  0  0  0  0  0  0  0  0
    3.7884    0.0000    0.0000 R#  0  0  0  0  0  0  0  0  0  0  0  0
  1  2  1  0  0  0  0
  2  3  1  0  0  0  0
  3  4  1  0  0  0  0
  4  5  1  0  0  0  0
  5  6  1  0  0  0  0
  1  6  1  0  0  0  0
  2  7  1  1  0  0  0
  6  8  1  1  0  0  0
  7  9  1  0  0  0  0
  9 10  1  0  0  0  0
  4 11  1  0  0  0  0
A    8
R3
A   10
R1
A   11
R2
M  END

>  <symbol>
mph

>  <m_abbr>
mph

>  <m_type>
rna

>  <m_subtype>
natural

>  <m_RgroupIdx>
9,10,7

>  <m_Rgroups>
H,H,OH

$$$$

MolEngine07221613482D

 17 17  0  0  0  0            999 V2000
    9.5080    0.9857    0.0000 O   0  0  0  0  0  0  0  0  0  0  0  0
    9.9786    2.4342    0.0000 C   0  0  0  0  0  0  0  0  0  0  0  0
    7.9850    0.9857    0.0000 C   0  0  0  0  0  0  0  0  0  0  0  0
    8.7465    3.3294    0.0000 C   0  0  0  0  0  0  0  0  0  0  0  0
    7.5144    2.4342    0.0000 C   0  0  0  0  0  0  0  0  0  0  0  0
    8.7497    4.8506    0.0000 O   0  0  0  0  0  0  0  0  0  0  0  0
    6.0667    2.9012    0.0000 O   0  0  0  0  0  0  0  0  0  0  0  0
   11.4264    2.9012    0.0000 C   0  0  0  0  0  0  0  0  0  0  0  0
    7.2689    0.0000    0.0000 R#  0  0  0  0  0  0  0  0  0  0  0  0
   12.5574    1.8800    0.0000 O   0  0  0  0  0  0  0  0  0  0  0  0
   13.7169    2.2541    0.0000 R#  0  0  0  0  0  0  0  0  0  0  0  0
    9.8057    5.4583    0.0000 R#  0  0  0  0  0  0  0  0  0  0  0  0
    4.9357    1.8800    0.0000 C   0  0  0  0  0  0  0  0  0  0  0  0
    3.4855    2.3479    0.0000 O   0  0  0  0  0  0  0  0  0  0  0  0
    2.3545    1.3265    0.0000 C   0  0  0  0  0  0  0  0  0  0  0  0
    0.9043    1.7944    0.0000 C   0  0  0  0  0  0  0  0  0  0  0  0
    0.0000    0.9779    0.0000 O   0  0  0  0  0  0  0  0  0  0  0  0
  1  2  1  0  0  0  0
  1  3  1  0  0  0  0
  2  4  1  0  0  0  0
  2  8  1  1  0  0  0
  3  5  1  0  0  0  0
  3  9  1  1  0  0  0
  4  5  1  0  0  0  0
  4  6  1  6  0  0  0
  5  7  1  6  0  0  0
  6 12  1  0  0  0  0
  8 10  1  0  0  0  0
 10 11  1  0  0  0  0
  7 13  1  0  0  0  0
 13 14  1  0  0  0  0
 14 15  1  0  0  0  0
 15 16  1  0  0  0  0
 16 17  1  0  0  0  0
A    9
R3
A   11
R1
A   12
R2
M  END

>  <symbol>
oheom2r

>  <m_abbr>
oheom2r

>  <m_type>
rna

>  <m_subtype>
natural

>  <m_RgroupIdx>
10,11,8

>  <m_Rgroups>
H,H,O

$$$$
Ribose
MolEngine07221613482D

 10 10  0  0  0  0            999 V2000
    4.2800    0.9708    0.0000 O   0  0  0  0  0  0  0  0  0  0  0  0
    4.7435    2.3974    0.0000 C   0  0  0  0  0  0  0  0  0  0  0  0
    2.7800    0.9708    0.0000 C   0  0  0  0  0  0  0  0  0  0  0  0
    3.5300    3.2791    0.0000 C   0  0  0  0  0  0  0  0  0  0  0  0
    2.3165    2.3974    0.0000 C   0  0  0  0  0  0  0  0  0  0  0  0
    3.5331    4.7773    0.0000 O   0  0  0  0  0  0  0  0  0  0  0  0
    0.8906    2.8574    0.0000 O   0  0  0  0  0  0  0  0  0  0  0  0
    2.0747    0.0000    0.0000 R#  0  0  0  0  0  0  0  0  0  0  0  0
    4.5732    5.3758    0.0000 R#  0  0  0  0  0  0  0  0  0  0  0  0
    0.0000    2.0532    0.0000 R#  0  0  0  0  0  0  0  0  0  0  0  0
  1  2  1  0  0  0  0
  1  3  1  0  0  0  0
  2  4  1  0  0  0  0
  3  5  1  0  0  0  0
  3  8  1  1  0  0  0
  4  5  1  0  0  0  0
  4  6  1  1  0  0  0
  5  7  1  6  0  0  0
  6  9  1  0  0  0  0
  7 10  1  0  0  0  0
A    8
R3
A    9
R1
A   10
R2
M  END

>  <symbol>
tna

>  <m_abbr>
tna

>  <m_type>
rna

>  <m_subtype>
natural

>  <m_RgroupIdx>
8,9,7

>  <m_Rgroups>
H,H,OH

$$$$

MolEngine07221613482D

 14 14  0  0  0  0            999 V2000
    4.5690    5.4799    0.0000 O   0  0  0  0  0  0  0  0  0  0  0  0
    3.8075    4.1609    0.0000 C   0  0  0  0  0  0  0  0  0  0  0  0
    4.5690    2.8420    0.0000 C   0  0  0  0  0  0  0  0  0  0  0  0
    6.0920    2.8420    0.0000 C   0  0  0  0  0  0  0  0  0  0  0  0
    6.8535    4.1609    0.0000 C   0  0  0  0  0  0  0  0  0  0  0  0
    6.0920    5.4799    0.0000 C   0  0  0  0  0  0  0  0  0  0  0  0
    8.3765    4.1609    0.0000 R#  0  0  0  0  0  0  0  0  0  0  0  0
    6.8535    1.5230    0.0000 O   0  0  0  0  0  0  0  0  0  0  0  0
    3.8075    1.5230    0.0000 O   0  0  0  0  0  0  0  0  0  0  0  0
    2.2845    4.1609    0.0000 C   0  0  0  0  0  0  0  0  0  0  0  0
    1.5230    2.8420    0.0000 O   0  0  0  0  0  0  0  0  0  0  0  0
    3.8075    0.0000    0.0000 R#  0  0  0  0  0  0  0  0  0  0  0  0
    0.0000    2.8420    0.0000 R#  0  0  0  0  0  0  0  0  0  0  0  0
    6.8535    0.0000    0.0000 C   0  0  0  0  0  0  0  0  0  0  0  0
  1  2  1  0  0  0  0
  2  3  1  0  0  0  0
  3  4  1  0  0  0  0
  4  5  1  0  0  0  0
  5  6  1  0  0  0  0
  6  1  1  0  0  0  0
  5  7  1  1  0  0  0
  4  8  1  6  0  0  0
  3  9  1  6  0  0  0
  2 10  1  1  0  0  0
 10 11  1  0  0  0  0
  9 12  1  0  0  0  0
 11 13  1  0  0  0  0
  8 14  1  0  0  0  0
A    7
R3
A   12
R2
A   13
R1
M  END

>  <symbol>
m3ana

>  <m_abbr>
m3ana

>  <m_type>
rna

>  <m_subtype>
natural

>  <m_RgroupIdx>
12,11,6

>  <m_Rgroups>
H,H,OH

$$$$

MolEngine07221613482D

 14 15  0  0  0  0            999 V2000
    3.6219    2.8416    0.0000 C   0  0  0  0  0  0  0  0  0  0  0  0
    5.9564    1.5401    0.0000 C   0  0  0  0  0  0  0  0  0  0  0  0
    4.0690    4.4714    0.0000 C   0  0  0  0  0  0  0  0  0  0  0  0
    4.4394    2.9941    0.0000 C   0  0  0  0  0  0  0  0  0  0  0  0
    5.9778    2.9807    0.0000 C   0  0  0  0  0  0  0  0  0  0  0  0
    6.5296    4.4317    0.0000 C   0  0  0  0  0  0  0  0  0  0  0  0
    5.3626    5.4086    0.0000 O   0  0  0  0  0  0  0  0  0  0  0  0
    2.6378    4.9923    0.0000 C   0  0  0  0  0  0  0  0  0  0  0  0
    8.0048    4.8103    0.0000 R#  0  0  0  0  0  0  0  0  0  0  0  0
    1.4712    4.0133    0.0000 O   0  0  0  0  0  0  0  0  0  0  0  0
    0.0000    4.4075    0.0000 R#  0  0  0  0  0  0  0  0  0  0  0  0
    4.0452    1.5230    0.0000 O   0  0  0  0  0  0  0  0  0  0  0  0
    4.0452    0.0000    0.0000 R#  0  0  0  0  0  0  0  0  0  0  0  0
    7.4649    1.3301    0.0000 C   0  0  0  0  0  0  0  0  0  0  0  0
  1  2  1  0  0  0  0
  3  4  1  0  0  0  0
  4  5  1  0  0  0  0
  5  6  1  0  0  0  0
  6  7  1  0  0  0  0
  3  7  1  6  0  0  0
  3  8  1  1  0  0  0
  6  9  1  1  0  0  0
  8 10  1  0  0  0  0
  3  1  1  0  0  0  0
  5  2  1  6  0  0  0
 10 11  1  0  0  0  0
  4 12  1  6  0  0  0
 12 13  1  0  0  0  0
  2 14  1  6  0  0  0
A    9
R3
A   11
R1
A   13
R2
M  END

>  <symbol>
Rmclna

>  <m_abbr>
Rmclna

>  <m_type>
rna

>  <m_subtype>
natural

>  <m_RgroupIdx>
10,12,8

>  <m_Rgroups>
H,H,OH

$$$$

MolEngine07221613482D

 14 15  0  0  0  0            999 V2000
    3.6219    2.8417    0.0000 C   0  0  0  0  0  0  0  0  0  0  0  0
    5.9564    1.5401    0.0000 C   0  0  0  0  0  0  0  0  0  0  0  0
    4.0690    4.4714    0.0000 C   0  0  0  0  0  0  0  0  0  0  0  0
    4.4394    2.9941    0.0000 C   0  0  0  0  0  0  0  0  0  0  0  0
    5.9777    2.9808    0.0000 C   0  0  0  0  0  0  0  0  0  0  0  0
    6.5295    4.4317    0.0000 C   0  0  0  0  0  0  0  0  0  0  0  0
    5.3626    5.4087    0.0000 O   0  0  0  0  0  0  0  0  0  0  0  0
    2.6378    4.9923    0.0000 C   0  0  0  0  0  0  0  0  0  0  0  0
    8.0047    4.8103    0.0000 R#  0  0  0  0  0  0  0  0  0  0  0  0
    1.4711    4.0133    0.0000 O   0  0  0  0  0  0  0  0  0  0  0  0
    0.0000    4.4075    0.0000 R#  0  0  0  0  0  0  0  0  0  0  0  0
    4.0452    1.5230    0.0000 O   0  0  0  0  0  0  0  0  0  0  0  0
    4.0452    0.0000    0.0000 R#  0  0  0  0  0  0  0  0  0  0  0  0
    5.5622    0.0690    0.0000 C   0  0  0  0  0  0  0  0  0  0  0  0
  1  2  1  0  0  0  0
  3  4  1  0  0  0  0
  4  5  1  0  0  0  0
  5  6  1  0  0  0  0
  6  7  1  0  0  0  0
  3  7  1  6  0  0  0
  3  8  1  1  0  0  0
  6  9  1  1  0  0  0
  8 10  1  0  0  0  0
  3  1  1  0  0  0  0
  5  2  1  6  0  0  0
 10 11  1  0  0  0  0
  4 12  1  6  0  0  0
 12 13  1  0  0  0  0
  2 14  1  1  0  0  0
A    9
R3
A   11
R1
A   13
R2
M  END

>  <symbol>
Smclna

>  <m_abbr>
Smclna

>  <m_type>
rna

>  <m_subtype>
natural

>  <m_RgroupIdx>
10,12,8

>  <m_Rgroups>
H,H,OH

$$$$

MolEngine07221613482D

 30 30  0  0  0  0            999 V2000
    3.9169   13.3287    0.0000 C   0  0  0  0  0  0  0  0  0  0  0  0
    4.2873   11.8514    0.0000 C   0  0  0  0  0  0  0  0  0  0  0  0
    5.8256   11.8381    0.0000 C   0  0  0  0  0  0  0  0  0  0  0  0
    6.3774   13.2890    0.0000 C   0  0  0  0  0  0  0  0  0  0  0  0
    5.2105   14.2659    0.0000 O   0  0  0  0  0  0  0  0  0  0  0  0
    3.3408   10.6583    0.0000 O   0  0  0  0  0  0  0  0  0  0  0  0
    2.4857   13.8496    0.0000 C   0  0  0  0  0  0  0  0  0  0  0  0
    7.8526   13.6676    0.0000 R#  0  0  0  0  0  0  0  0  0  0  0  0
    1.3190   12.8706    0.0000 O   0  0  0  0  0  0  0  0  0  0  0  0
    0.0000   13.6321    0.0000 R#  0  0  0  0  0  0  0  0  0  0  0  0
    3.3408    9.1352    0.0000 R#  0  0  0  0  0  0  0  0  0  0  0  0
    6.6398   10.5516    0.0000 O   0  0  0  0  0  0  0  0  0  0  0  0
   10.4473    9.2327    0.0000 C   0  0  0  0  0  0  0  0  0  0  0  0
    8.9243    9.2327    0.0000 C   0  0  0  0  0  0  0  0  0  0  0  0
    8.1628   10.5516    0.0000 C   0  0  0  0  0  0  0  0  0  0  0  0
   11.2088    7.9137    0.0000 C   0  0  0  0  0  0  0  0  0  0  0  0
   12.7318    7.9137    0.0000 C   0  0  0  0  0  0  0  0  0  0  0  0
   13.4933    6.5947    0.0000 C   0  0  0  0  0  0  0  0  0  0  0  0
   15.0163    6.5947    0.0000 N   0  0  0  0  0  0  0  0  0  0  0  0
   15.7778    5.2758    0.0000 C   0  0  0  0  0  0  0  0  0  0  0  0
   17.3008    5.2758    0.0000 C   0  0  0  0  0  0  0  0  0  0  0  0
   18.0623    3.9568    0.0000 C   0  0  0  0  0  0  0  0  0  0  0  0
   19.5853    3.9568    0.0000 C   0  0  0  0  0  0  0  0  0  0  0  0
   20.3468    2.6379    0.0000 C   0  0  0  0  0  0  0  0  0  0  0  0
   21.8698    2.6379    0.0000 C   0  0  0  0  0  0  0  0  0  0  0  0
   22.6313    1.3189    0.0000 C   0  0  0  0  0  0  0  0  0  0  0  0
   24.1543    1.3189    0.0000 C   0  0  0  0  0  0  0  0  0  0  0  0
   24.9158    0.0000    0.0000 C   0  0  0  0  0  0  0  0  0  0  0  0
   26.4388    0.0000    0.0000 C   0  0  0  0  0  0  0  0  0  0  0  0
   15.0163    3.9568    0.0000 O   0  0  0  0  0  0  0  0  0  0  0  0
  1  2  1  0  0  0  0
  2  3  1  0  0  0  0
  3  4  1  0  0  0  0
  4  5  1  0  0  0  0
  5  1  1  0  0  0  0
  2  6  1  6  0  0  0
  3 12  1  6  0  0  0
  1  7  1  1  0  0  0
  4  8  1  1  0  0  0
  7  9  1  0  0  0  0
  9 10  1  0  0  0  0
  6 11  1  0  0  0  0
 14 15  1  0  0  0  0
 13 14  1  0  0  0  0
 12 15  1  0  0  0  0
 13 16  1  0  0  0  0
 16 17  1  0  0  0  0
 17 18  1  0  0  0  0
 18 19  1  0  0  0  0
 19 20  1  0  0  0  0
 20 21  1  0  0  0  0
 21 22  1  0  0  0  0
 22 23  1  0  0  0  0
 23 24  1  0  0  0  0
 24 25  1  0  0  0  0
 25 26  1  0  0  0  0
 26 27  1  0  0  0  0
 27 28  1  0  0  0  0
 28 29  1  0  0  0  0
 20 30  2  0  0  0  0
A    8
R3
A   10
R1
A   11
R2
M  END

>  <symbol>
C10oylnC62r

>  <m_abbr>
C10oylnC62r

>  <m_type>
rna

>  <m_subtype>
natural

>  <m_RgroupIdx>
9,10,7

>  <m_Rgroups>
H,H,OH

$$$$

MolEngine07221613482D

 36 36  0  0  0  0            999 V2000
    3.9318    6.7241    0.0000 C   0  0  0  0  0  0  0  0  0  0  0  0
    4.3106    5.2435    0.0000 C   0  0  0  0  0  0  0  0  0  0  0  0
    5.8544    5.2375    0.0000 C   0  0  0  0  0  0  0  0  0  0  0  0
    6.3973    6.6860    0.0000 C   0  0  0  0  0  0  0  0  0  0  0  0
    5.2255    7.6709    0.0000 O   0  0  0  0  0  0  0  0  0  0  0  0
    3.3665    4.0417    0.0000 O   0  0  0  0  0  0  0  0  0  0  0  0
    2.4932    7.2400    0.0000 C   0  0  0  0  0  0  0  0  0  0  0  0
    7.8796    7.0831    0.0000 R#  0  0  0  0  0  0  0  0  0  0  0  0
    1.3272    6.2520    0.0000 O   0  0  0  0  0  0  0  0  0  0  0  0
    0.0000    7.0099    0.0000 R#  0  0  0  0  0  0  0  0  0  0  0  0
    3.3738    2.5134    0.0000 R#  0  0  0  0  0  0  0  0  0  0  0  0
    6.6775    3.9505    0.0000 O   0  0  0  0  0  0  0  0  0  0  0  0
   10.4992    2.6379    0.0000 C   0  0  0  0  0  0  0  0  0  0  0  0
    8.9762    2.6379    0.0000 C   0  0  0  0  0  0  0  0  0  0  0  0
    8.2058    3.9578    0.0000 C   0  0  0  0  0  0  0  0  0  0  0  0
   11.2607    1.3190    0.0000 C   0  0  0  0  0  0  0  0  0  0  0  0
   12.7837    1.3190    0.0000 C   0  0  0  0  0  0  0  0  0  0  0  0
   13.5452    0.0000    0.0000 C   0  0  0  0  0  0  0  0  0  0  0  0
   15.0682    0.0000    0.0000 N   0  0  0  0  0  0  0  0  0  0  0  0
   15.8297    1.3190    0.0000 C   0  0  0  0  0  0  0  0  0  0  0  0
   15.0682    2.6379    0.0000 O   0  0  0  0  0  0  0  0  0  0  0  0
   17.3527    1.3190    0.0000 C   0  0  0  0  0  0  0  0  0  0  0  0
   18.1142    2.6379    0.0000 C   0  0  0  0  0  0  0  0  0  0  0  0
   19.6372    2.6379    0.0000 C   0  0  0  0  0  0  0  0  0  0  0  0
   20.3987    3.9568    0.0000 C   0  0  0  0  0  0  0  0  0  0  0  0
   21.9217    3.9568    0.0000 C   0  0  0  0  0  0  0  0  0  0  0  0
   22.6832    5.2758    0.0000 C   0  0  0  0  0  0  0  0  0  0  0  0
   24.2062    5.2758    0.0000 C   0  0  0  0  0  0  0  0  0  0  0  0
   24.9677    6.5948    0.0000 C   0  0  0  0  0  0  0  0  0  0  0  0
   26.4907    6.5948    0.0000 C   0  0  0  0  0  0  0  0  0  0  0  0
   27.2522    7.9137    0.0000 C   0  0  0  0  0  0  0  0  0  0  0  0
   28.7752    7.9137    0.0000 C   0  0  0  0  0  0  0  0  0  0  0  0
   29.5367    9.2327    0.0000 C   0  0  0  0  0  0  0  0  0  0  0  0
   31.0597    9.2327    0.0000 C   0  0  0  0  0  0  0  0  0  0  0  0
   31.8212   10.5516    0.0000 C   0  0  0  0  0  0  0  0  0  0  0  0
   33.3442   10.5516    0.0000 C   0  0  0  0  0  0  0  0  0  0  0  0
  1  2  1  0  0  0  0
  2  3  1  0  0  0  0
  3  4  1  0  0  0  0
  4  5  1  0  0  0  0
  5  1  1  0  0  0  0
  2  6  1  6  0  0  0
  3 12  1  6  0  0  0
  1  7  1  1  0  0  0
  4  8  1  1  0  0  0
  7  9  1  0  0  0  0
  9 10  1  0  0  0  0
  6 11  1  0  0  0  0
 14 15  1  0  0  0  0
 13 14  1  0  0  0  0
 12 15  1  0  0  0  0
 13 16  1  0  0  0  0
 16 17  1  0  0  0  0
 17 18  1  0  0  0  0
 18 19  1  0  0  0  0
 19 20  1  0  0  0  0
 20 21  2  0  0  0  0
 22 20  1  0  0  0  0
 23 22  1  0  0  0  0
 24 23  1  0  0  0  0
 25 24  1  0  0  0  0
 26 25  1  0  0  0  0
 27 26  1  0  0  0  0
 28 27  1  0  0  0  0
 29 28  1  0  0  0  0
 30 29  1  0  0  0  0
 30 31  1  0  0  0  0
 31 32  1  0  0  0  0
 32 33  1  0  0  0  0
 33 34  1  0  0  0  0
 34 35  1  0  0  0  0
 35 36  1  0  0  0  0
A    8
R3
A   10
R1
A   11
R2
M  END

>  <symbol>
C16oylnC62r

>  <m_abbr>
C16oylnC62r

>  <m_type>
rna

>  <m_subtype>
natural

>  <m_RgroupIdx>
9,10,7

>  <m_Rgroups>
H,H,OH

$$$$

MolEngine07221613482D

 52 56  0  0  0  0            999 V2000
   18.0703   13.8649    0.0000 C   0  0  0  0  0  0  0  0  0  0  0  0
   19.5933   13.8743    0.0000 C   0  0  0  0  0  0  0  0  0  0  0  0
   20.3629   12.5600    0.0000 C   0  0  0  0  0  0  0  0  0  0  0  0
   17.3170   12.5412    0.0000 C   0  0  0  0  0  0  0  0  0  0  0  0
   18.0867   11.2270    0.0000 C   0  0  0  0  0  0  0  0  0  0  0  0
   17.3333    9.9033    0.0000 C   0  0  0  0  0  0  0  0  0  0  0  0
   18.1030    8.5891    0.0000 C   0  0  0  0  0  0  0  0  0  0  0  0
   19.6259    8.5985    0.0000 C   0  0  0  0  0  0  0  0  0  0  0  0
   20.3929    7.2889    0.0000 C   0  0  0  0  0  0  0  0  0  0  0  0
   19.9339    5.8330    0.0000 C   0  0  0  0  0  0  0  0  0  0  0  0
   21.1716    4.9454    0.0000 C   0  0  0  0  0  0  0  0  0  0  0  0
   22.3981    5.8482    0.0000 C   0  0  0  0  0  0  0  0  0  0  0  0
   23.8495    5.3866    0.0000 C   0  0  0  0  0  0  0  0  0  0  0  0
   24.1753    3.8988    0.0000 C   0  0  0  0  0  0  0  0  0  0  0  0
   25.6267    3.4371    0.0000 C   0  0  0  0  0  0  0  0  0  0  0  0
   25.9525    1.9494    0.0000 C   0  0  0  0  0  0  0  0  0  0  0  0
   27.4039    1.4878    0.0000 C   0  0  0  0  0  0  0  0  0  0  0  0
   28.4741    2.5713    0.0000 C   0  0  0  0  0  0  0  0  0  0  0  0
   27.7297    0.0000    0.0000 C   0  0  0  0  0  0  0  0  0  0  0  0
   24.9197    6.4701    0.0000 C   0  0  0  0  0  0  0  0  0  0  0  0
   21.9186    7.2937    0.0000 C   0  0  0  0  0  0  0  0  0  0  0  0
   23.4415    7.3032    0.0000 C   0  0  0  0  0  0  0  0  0  0  0  0
   22.6719    8.6174    0.0000 C   0  0  0  0  0  0  0  0  0  0  0  0
   21.9022    9.9316    0.0000 C   0  0  0  0  0  0  0  0  0  0  0  0
   20.3793    9.9222    0.0000 C   0  0  0  0  0  0  0  0  0  0  0  0
   19.6096   11.2364    0.0000 C   0  0  0  0  0  0  0  0  0  0  0  0
   21.1326   11.2458    0.0000 C   0  0  0  0  0  0  0  0  0  0  0  0
   18.8563    9.9128    0.0000 H   0  0  0  0  0  0  0  0  0  0  0  0
   21.1489    8.6080    0.0000 H   0  0  0  0  0  0  0  0  0  0  0  0
   18.8726    7.2749    0.0000 H   0  0  0  0  0  0  0  0  0  0  0  0
    3.9168   23.2320    0.0000 C   0  0  0  0  0  0  0  0  0  0  0  0
    4.2872   21.7547    0.0000 C   0  0  0  0  0  0  0  0  0  0  0  0
    5.8256   21.7414    0.0000 C   0  0  0  0  0  0  0  0  0  0  0  0
    6.3773   23.1923    0.0000 C   0  0  0  0  0  0  0  0  0  0  0  0
    5.2104   24.1692    0.0000 O   0  0  0  0  0  0  0  0  0  0  0  0
    3.3407   20.5615    0.0000 O   0  0  0  0  0  0  0  0  0  0  0  0
    2.4856   23.7529    0.0000 C   0  0  0  0  0  0  0  0  0  0  0  0
    7.8526   23.5709    0.0000 R#  0  0  0  0  0  0  0  0  0  0  0  0
    1.3190   22.7739    0.0000 O   0  0  0  0  0  0  0  0  0  0  0  0
    0.0000   23.5354    0.0000 R#  0  0  0  0  0  0  0  0  0  0  0  0
    3.3407   19.0385    0.0000 R#  0  0  0  0  0  0  0  0  0  0  0  0
    6.6397   20.4549    0.0000 O   0  0  0  0  0  0  0  0  0  0  0  0
   10.4472   19.1360    0.0000 C   0  0  0  0  0  0  0  0  0  0  0  0
    8.9242   19.1360    0.0000 C   0  0  0  0  0  0  0  0  0  0  0  0
    8.1627   20.4549    0.0000 C   0  0  0  0  0  0  0  0  0  0  0  0
   11.2087   17.8170    0.0000 C   0  0  0  0  0  0  0  0  0  0  0  0
   12.7317   17.8170    0.0000 C   0  0  0  0  0  0  0  0  0  0  0  0
   13.4932   16.4980    0.0000 C   0  0  0  0  0  0  0  0  0  0  0  0
   15.0162   16.4980    0.0000 N   0  0  0  0  0  0  0  0  0  0  0  0
   15.7777   15.1791    0.0000 C   0  0  0  0  0  0  0  0  0  0  0  0
   17.3007   15.1791    0.0000 O   0  0  0  0  0  0  0  0  0  0  0  0
   15.0162   13.8601    0.0000 O   0  0  0  0  0  0  0  0  0  0  0  0
  1  2  1  0  0  0  0
  2  3  1  0  0  0  0
  1  4  1  0  0  0  0
  4  5  1  0  0  0  0
  5  6  2  0  0  0  0
  6  7  1  0  0  0  0
  7  8  1  0  0  0  0
  8  9  1  0  0  0  0
  9 10  1  0  0  0  0
 10 11  1  0  0  0  0
 12 11  1  1  0  0  0
 12 13  1  0  0  0  0
 13 14  1  0  0  0  0
 14 15  1  0  0  0  0
 15 16  1  0  0  0  0
 16 17  1  0  0  0  0
 17 18  1  0  0  0  0
 17 19  1  0  0  0  0
 13 20  1  6  0  0  0
 12 21  1  0  0  0  0
  9 21  1  0  0  0  0
 21 22  1  1  0  0  0
 21 23  1  0  0  0  0
 23 24  1  0  0  0  0
 24 25  1  0  0  0  0
  8 25  1  0  0  0  0
 25 26  1  0  0  0  0
  3 26  1  0  0  0  0
  5 26  1  0  0  0  0
 26 27  1  1  0  0  0
  1 51  1  1  0  0  0
 25 28  1  6  0  0  0
  8 29  1  1  0  0  0
  9 30  1  6  0  0  0
 31 32  1  0  0  0  0
 32 33  1  0  0  0  0
 33 34  1  0  0  0  0
 34 35  1  0  0  0  0
 35 31  1  0  0  0  0
 32 36  1  6  0  0  0
 33 42  1  6  0  0  0
 31 37  1  1  0  0  0
 34 38  1  1  0  0  0
 37 39  1  0  0  0  0
 39 40  1  0  0  0  0
 36 41  1  0  0  0  0
 44 45  1  0  0  0  0
 43 44  1  0  0  0  0
 42 45  1  0  0  0  0
 43 46  1  0  0  0  0
 46 47  1  0  0  0  0
 47 48  1  0  0  0  0
 48 49  1  0  0  0  0
 49 50  1  0  0  0  0
 50 51  1  0  0  0  0
 50 52  2  0  0  0  0
A   38
R3
A   40
R1
A   41
R2
M  END

>  <symbol>
cholcnC62r

>  <m_abbr>
cholcnC62r

>  <m_type>
rna

>  <m_subtype>
natural

>  <m_RgroupIdx>
39,40,37

>  <m_Rgroups>
H,H,OH

$$$$

MolEngine07221613482D

 14 15  0  0  0  0            999 V2000
    3.6219    2.8416    0.0000 C   0  0  0  0  0  0  0  0  0  0  0  0
    5.9564    1.5401    0.0000 N   0  0  0  0  0  0  0  0  0  0  0  0
    4.0689    4.4714    0.0000 C   0  0  0  0  0  0  0  0  0  0  0  0
    4.4394    2.9941    0.0000 C   0  0  0  0  0  0  0  0  0  0  0  0
    5.9777    2.9808    0.0000 C   0  0  0  0  0  0  0  0  0  0  0  0
    6.5295    4.4317    0.0000 C   0  0  0  0  0  0  0  0  0  0  0  0
    5.3626    5.4087    0.0000 O   0  0  0  0  0  0  0  0  0  0  0  0
    2.6378    4.9923    0.0000 C   0  0  0  0  0  0  0  0  0  0  0  0
    8.0047    4.8103    0.0000 R#  0  0  0  0  0  0  0  0  0  0  0  0
    1.4711    4.0133    0.0000 O   0  0  0  0  0  0  0  0  0  0  0  0
    0.0000    4.4075    0.0000 R#  0  0  0  0  0  0  0  0  0  0  0  0
    4.0452    1.5230    0.0000 O   0  0  0  0  0  0  0  0  0  0  0  0
    4.0452    0.0000    0.0000 R#  0  0  0  0  0  0  0  0  0  0  0  0
    6.7180    0.2212    0.0000 C   0  0  0  0  0  0  0  0  0  0  0  0
  1  2  1  0  0  0  0
  3  4  1  0  0  0  0
  4  5  1  0  0  0  0
  5  6  1  0  0  0  0
  6  7  1  0  0  0  0
  3  7  1  6  0  0  0
  3  8  1  1  0  0  0
  6  9  1  1  0  0  0
  8 10  1  0  0  0  0
  3  1  1  0  0  0  0
  5  2  1  6  0  0  0
 10 11  1  0  0  0  0
  4 12  1  6  0  0  0
 12 13  1  0  0  0  0
  2 14  1  0  0  0  0
A    9
R3
A   11
R1
A   13
R2
M  END

>  <symbol>
mn2lna

>  <m_abbr>
mn2lna

>  <m_type>
rna

>  <m_subtype>
natural

>  <m_RgroupIdx>
10,12,8

>  <m_Rgroups>
H,H,OH

$$$$

MolEngine07221613482D

 15 16  0  0  0  0            999 V2000
    3.8320    2.9940    0.0000 C   0  0  0  0  0  0  0  0  0  0  0  0
    5.3550    2.9940    0.0000 C   0  0  0  0  0  0  0  0  0  0  0  0
    5.8256    4.4426    0.0000 C   0  0  0  0  0  0  0  0  0  0  0  0
    4.5935    5.3377    0.0000 O   0  0  0  0  0  0  0  0  0  0  0  0
    3.3615    4.4426    0.0000 C   0  0  0  0  0  0  0  0  0  0  0  0
    2.6000    5.7614    0.0000 C   0  0  0  0  0  0  0  0  0  0  0  0
    1.0770    5.7614    0.0000 O   0  0  0  0  0  0  0  0  0  0  0  0
    3.4379    1.5230    0.0000 O   0  0  0  0  0  0  0  0  0  0  0  0
    6.5871    5.7614    0.0000 R#  0  0  0  0  0  0  0  0  0  0  0  0
    2.9685    2.9766    0.0000 C   0  0  0  0  0  0  0  0  0  0  0  0
    5.3575    1.5230    0.0000 N   0  0  0  0  0  0  0  0  0  0  0  0
    1.4960    2.5773    0.0000 C   0  0  0  0  0  0  0  0  0  0  0  0
    6.1163    0.2087    0.0000 C   0  0  0  0  0  0  0  0  0  0  0  0
    0.0000    6.8383    0.0000 R#  0  0  0  0  0  0  0  0  0  0  0  0
    3.4379    0.0000    0.0000 R#  0  0  0  0  0  0  0  0  0  0  0  0
  1  2  1  0  0  0  0
  2  3  1  0  0  0  0
  3  4  1  0  0  0  0
  5  4  1  6  0  0  0
  5  1  1  0  0  0  0
  5  6  1  1  0  0  0
  6  7  1  0  0  0  0
  3  9  1  1  0  0  0
  5 10  1  0  0  0  0
  2 11  1  6  0  0  0
 10 11  1  0  0  0  0
  1  8  1  6  0  0  0
 10 12  1  1  0  0  0
 11 13  1  0  0  0  0
  7 14  1  0  0  0  0
  8 15  1  0  0  0  0
A    9
R3
A   14
R1
A   15
R2
M  END

>  <symbol>
Smn2cet

>  <m_abbr>
Smn2cet

>  <m_type>
rna

>  <m_subtype>
natural

>  <m_RgroupIdx>
13,14,8

>  <m_Rgroups>
H,H,OH

$$$$

MolEngine07221613482D

 15 16  0  0  0  0            999 V2000
    3.8320    2.9939    0.0000 C   0  0  0  0  0  0  0  0  0  0  0  0
    5.3550    2.9939    0.0000 C   0  0  0  0  0  0  0  0  0  0  0  0
    5.8255    4.4425    0.0000 C   0  0  0  0  0  0  0  0  0  0  0  0
    4.5935    5.3377    0.0000 O   0  0  0  0  0  0  0  0  0  0  0  0
    3.3614    4.4425    0.0000 C   0  0  0  0  0  0  0  0  0  0  0  0
    2.5999    5.7614    0.0000 C   0  0  0  0  0  0  0  0  0  0  0  0
    1.0769    5.7614    0.0000 O   0  0  0  0  0  0  0  0  0  0  0  0
    3.4378    1.5230    0.0000 O   0  0  0  0  0  0  0  0  0  0  0  0
    6.5870    5.7614    0.0000 R#  0  0  0  0  0  0  0  0  0  0  0  0
    2.9685    2.9765    0.0000 C   0  0  0  0  0  0  0  0  0  0  0  0
    5.3575    1.5230    0.0000 N   0  0  0  0  0  0  0  0  0  0  0  0
    1.4960    2.5773    0.0000 C   0  0  0  0  0  0  0  0  0  0  0  0
    6.1163    0.2086    0.0000 C   0  0  0  0  0  0  0  0  0  0  0  0
    0.0000    6.8383    0.0000 R#  0  0  0  0  0  0  0  0  0  0  0  0
    3.4378    0.0000    0.0000 R#  0  0  0  0  0  0  0  0  0  0  0  0
  1  2  1  0  0  0  0
  2  3  1  0  0  0  0
  3  4  1  0  0  0  0
  5  4  1  6  0  0  0
  5  1  1  0  0  0  0
  5  6  1  1  0  0  0
  6  7  1  0  0  0  0
  3  9  1  1  0  0  0
  5 10  1  0  0  0  0
  2 11  1  6  0  0  0
 10 11  1  0  0  0  0
  1  8  1  6  0  0  0
 10 12  1  6  0  0  0
 11 13  1  0  0  0  0
  7 14  1  0  0  0  0
  8 15  1  0  0  0  0
A    9
R3
A   14
R1
A   15
R2
M  END

>  <symbol>
Rmn2cet

>  <m_abbr>
Rmn2cet

>  <m_type>
rna

>  <m_subtype>
natural

>  <m_RgroupIdx>
13,14,8

>  <m_Rgroups>
H,H,OH

$$$$

MolEngine07221613482D

 14 15  0  0  0  0            999 V2000
    3.8320    2.9939    0.0000 C   0  0  0  0  0  0  0  0  0  0  0  0
    5.3550    2.9939    0.0000 C   0  0  0  0  0  0  0  0  0  0  0  0
    5.8256    4.4425    0.0000 C   0  0  0  0  0  0  0  0  0  0  0  0
    4.5935    5.3377    0.0000 O   0  0  0  0  0  0  0  0  0  0  0  0
    3.3614    4.4425    0.0000 C   0  0  0  0  0  0  0  0  0  0  0  0
    2.5999    5.7614    0.0000 C   0  0  0  0  0  0  0  0  0  0  0  0
    1.0769    5.7614    0.0000 O   0  0  0  0  0  0  0  0  0  0  0  0
    3.4379    1.5230    0.0000 O   0  0  0  0  0  0  0  0  0  0  0  0
    6.5871    5.7614    0.0000 R#  0  0  0  0  0  0  0  0  0  0  0  0
    2.9685    2.9765    0.0000 C   0  0  0  0  0  0  0  0  0  0  0  0
    5.3575    1.5230    0.0000 S   0  0  0  0  0  0  0  0  0  0  0  0
    1.4960    2.5773    0.0000 C   0  0  0  0  0  0  0  0  0  0  0  0
    0.0000    6.8383    0.0000 R#  0  0  0  0  0  0  0  0  0  0  0  0
    3.4379    0.0000    0.0000 R#  0  0  0  0  0  0  0  0  0  0  0  0
  1  2  1  0  0  0  0
  2  3  1  0  0  0  0
  3  4  1  0  0  0  0
  5  4  1  6  0  0  0
  5  1  1  0  0  0  0
  5  6  1  1  0  0  0
  6  7  1  0  0  0  0
  3  9  1  1  0  0  0
  5 10  1  0  0  0  0
  2 11  1  6  0  0  0
 10 11  1  0  0  0  0
  1  8  1  6  0  0  0
 10 12  1  1  0  0  0
  7 13  1  0  0  0  0
  8 14  1  0  0  0  0
A    9
R3
A   13
R1
A   14
R2
M  END

>  <symbol>
Ss2cEt

>  <m_abbr>
Ss2cEt

>  <m_type>
rna

>  <m_subtype>
natural

>  <m_RgroupIdx>
12,13,8

>  <m_Rgroups>
H,H,OH

$$$$

MolEngine07221613482D

 14 15  0  0  0  0            999 V2000
    3.8320    2.9940    0.0000 C   0  0  0  0  0  0  0  0  0  0  0  0
    5.3550    2.9940    0.0000 C   0  0  0  0  0  0  0  0  0  0  0  0
    5.8256    4.4426    0.0000 C   0  0  0  0  0  0  0  0  0  0  0  0
    4.5935    5.3377    0.0000 O   0  0  0  0  0  0  0  0  0  0  0  0
    3.3614    4.4426    0.0000 C   0  0  0  0  0  0  0  0  0  0  0  0
    2.5999    5.7614    0.0000 C   0  0  0  0  0  0  0  0  0  0  0  0
    1.0769    5.7614    0.0000 O   0  0  0  0  0  0  0  0  0  0  0  0
    3.4379    1.5230    0.0000 O   0  0  0  0  0  0  0  0  0  0  0  0
    6.5871    5.7614    0.0000 R#  0  0  0  0  0  0  0  0  0  0  0  0
    2.9685    2.9766    0.0000 C   0  0  0  0  0  0  0  0  0  0  0  0
    5.3575    1.5230    0.0000 S   0  0  0  0  0  0  0  0  0  0  0  0
    1.4960    2.5773    0.0000 C   0  0  0  0  0  0  0  0  0  0  0  0
    0.0000    6.8383    0.0000 R#  0  0  0  0  0  0  0  0  0  0  0  0
    3.4379    0.0000    0.0000 R#  0  0  0  0  0  0  0  0  0  0  0  0
  1  2  1  0  0  0  0
  2  3  1  0  0  0  0
  3  4  1  0  0  0  0
  5  4  1  6  0  0  0
  5  1  1  0  0  0  0
  5  6  1  1  0  0  0
  6  7  1  0  0  0  0
  3  9  1  1  0  0  0
  5 10  1  0  0  0  0
  2 11  1  6  0  0  0
 10 11  1  0  0  0  0
  1  8  1  6  0  0  0
 10 12  1  6  0  0  0
  7 13  1  0  0  0  0
  8 14  1  0  0  0  0
A    9
R3
A   13
R1
A   14
R2
M  END

>  <symbol>
Rs2cEt

>  <m_abbr>
Rs2cEt

>  <m_type>
rna

>  <m_subtype>
natural

>  <m_RgroupIdx>
12,13,8

>  <m_Rgroups>
H,H,OH

$$$$

MolEngine07221613482D

 17 17  0  0  0  0            999 V2000
    4.0293    6.4832    0.0000 C   0  0  0  0  0  0  0  0  0  0  0  0
    4.4331    5.0306    0.0000 C   0  0  0  0  0  0  0  0  0  0  0  0
    5.9558    5.0561    0.0000 C   0  0  0  0  0  0  0  0  0  0  0  0
    6.4654    6.5059    0.0000 C   0  0  0  0  0  0  0  0  0  0  0  0
    5.2860    7.4434    0.0000 O   0  0  0  0  0  0  0  0  0  0  0  0
    3.5217    3.8103    0.0000 O   0  0  0  0  0  0  0  0  0  0  0  0
    2.5854    6.9676    0.0000 C   0  0  0  0  0  0  0  0  0  0  0  0
    7.9289    6.9277    0.0000 R#  0  0  0  0  0  0  0  0  0  0  0  0
    1.4440    5.9593    0.0000 O   0  0  0  0  0  0  0  0  0  0  0  0
    0.0000    6.4436    0.0000 R#  0  0  0  0  0  0  0  0  0  0  0  0
    6.8467    3.8208    0.0000 O   0  0  0  0  0  0  0  0  0  0  0  0
    3.5217    2.2820    0.0000 R#  0  0  0  0  0  0  0  0  0  0  0  0
    6.8467    2.2925    0.0000 C   0  0  0  0  0  0  0  0  0  0  0  0
    8.1702    1.5283    0.0000 C   0  0  0  0  0  0  0  0  0  0  0  0
    8.1702    0.0000    0.0000 C   0  0  0  0  0  0  0  0  0  0  0  0
    9.4938    2.2925    0.0000 O   0  0  0  0  0  0  0  0  0  0  0  0
   10.8173    1.5283    0.0000 C   0  0  0  0  0  0  0  0  0  0  0  0
  1  2  1  0  0  0  0
  2  3  1  0  0  0  0
  3  4  1  0  0  0  0
  4  5  1  0  0  0  0
  5  1  1  0  0  0  0
  2  6  1  6  0  0  0
  3 11  1  6  0  0  0
  1  7  1  1  0  0  0
  4  8  1  1  0  0  0
  7  9  1  0  0  0  0
  9 10  1  0  0  0  0
  6 12  1  0  0  0  0
 11 13  1  0  0  0  0
 13 14  1  0  0  0  0
 14 15  1  1  0  0  0
 14 16  1  0  0  0  0
 16 17  1  0  0  0  0
A    8
R3
A   10
R1
A   12
R2
M  END

>  <symbol>
Sm2moe

>  <m_abbr>
Sm2moe

>  <m_type>
rna

>  <m_subtype>
natural

>  <m_RgroupIdx>
9,11,7

>  <m_Rgroups>
H,H,OH

$$$$

MolEngine07221613482D

 15 16  0  0  0  0            999 V2000
    3.6219    2.6695    0.0000 C   0  0  0  0  0  0  0  0  0  0  0  0
    5.9564    1.3680    0.0000 O   0  0  0  0  0  0  0  0  0  0  0  0
    4.0690    4.2992    0.0000 C   0  0  0  0  0  0  0  0  0  0  0  0
    4.4394    2.8220    0.0000 C   0  0  0  0  0  0  0  0  0  0  0  0
    5.9777    2.8086    0.0000 C   0  0  0  0  0  0  0  0  0  0  0  0
    6.5295    4.2596    0.0000 C   0  0  0  0  0  0  0  0  0  0  0  0
    5.3626    5.2365    0.0000 O   0  0  0  0  0  0  0  0  0  0  0  0
    3.9160    1.5230    0.0000 O   0  0  0  0  0  0  0  0  0  0  0  0
    2.6378    4.8201    0.0000 C   0  0  0  0  0  0  0  0  0  0  0  0
    8.0047    4.6381    0.0000 R#  0  0  0  0  0  0  0  0  0  0  0  0
    1.4711    3.8412    0.0000 O   0  0  0  0  0  0  0  0  0  0  0  0
    0.0000    4.2354    0.0000 R#  0  0  0  0  0  0  0  0  0  0  0  0
    3.9160    0.0000    0.0000 R#  0  0  0  0  0  0  0  0  0  0  0  0
    2.3733    6.3200    0.0000 C   0  0  0  0  0  0  0  0  0  0  0  0
    2.2175    2.0803    0.0000 C   0  0  0  0  0  0  0  0  0  0  0  0
  1  2  1  0  0  0  0
  3  4  1  0  0  0  0
  4  5  1  0  0  0  0
  5  6  1  0  0  0  0
  6  7  1  0  0  0  0
  3  7  1  6  0  0  0
  4  8  1  6  0  0  0
  3  9  1  0  0  0  0
  6 10  1  1  0  0  0
  9 11  1  0  0  0  0
  3  1  1  0  0  0  0
  5  2  1  6  0  0  0
 11 12  1  0  0  0  0
  8 13  1  0  0  0  0
  9 14  1  1  0  0  0
  1 15  1  6  0  0  0
A   10
R3
A   12
R1
A   13
R2
M  END

>  <symbol>
5S6Rm5cEt

>  <m_abbr>
5S6Rm5cEt

>  <m_type>
rna

>  <m_subtype>
natural

>  <m_RgroupIdx>
11,12,9

>  <m_Rgroups>
H,H,OH

$$$$

MolEngine07221613482D

 15 16  0  0  0  0            999 V2000
    3.6219    2.6695    0.0000 C   0  0  0  0  0  0  0  0  0  0  0  0
    5.9564    1.3680    0.0000 O   0  0  0  0  0  0  0  0  0  0  0  0
    4.0690    4.2992    0.0000 C   0  0  0  0  0  0  0  0  0  0  0  0
    4.4394    2.8220    0.0000 C   0  0  0  0  0  0  0  0  0  0  0  0
    5.9777    2.8086    0.0000 C   0  0  0  0  0  0  0  0  0  0  0  0
    6.5295    4.2596    0.0000 C   0  0  0  0  0  0  0  0  0  0  0  0
    5.3626    5.2365    0.0000 O   0  0  0  0  0  0  0  0  0  0  0  0
    3.9160    1.5230    0.0000 O   0  0  0  0  0  0  0  0  0  0  0  0
    2.6378    4.8201    0.0000 C   0  0  0  0  0  0  0  0  0  0  0  0
    8.0047    4.6381    0.0000 R#  0  0  0  0  0  0  0  0  0  0  0  0
    1.4711    3.8412    0.0000 O   0  0  0  0  0  0  0  0  0  0  0  0
    0.0000    4.2354    0.0000 R#  0  0  0  0  0  0  0  0  0  0  0  0
    3.9160    0.0000    0.0000 R#  0  0  0  0  0  0  0  0  0  0  0  0
    2.3733    6.3200    0.0000 C   0  0  0  0  0  0  0  0  0  0  0  0
    2.2175    2.0803    0.0000 C   0  0  0  0  0  0  0  0  0  0  0  0
  1  2  1  0  0  0  0
  3  4  1  0  0  0  0
  4  5  1  0  0  0  0
  5  6  1  0  0  0  0
  6  7  1  0  0  0  0
  3  7  1  6  0  0  0
  4  8  1  6  0  0  0
  3  9  1  0  0  0  0
  6 10  1  1  0  0  0
  9 11  1  0  0  0  0
  3  1  1  0  0  0  0
  5  2  1  6  0  0  0
 11 12  1  0  0  0  0
  8 13  1  0  0  0  0
  9 14  1  6  0  0  0
  1 15  1  6  0  0  0
A   10
R3
A   12
R1
A   13
R2
M  END

>  <symbol>
5R6Rm5cEt

>  <m_abbr>
5R6Rm5cEt

>  <m_type>
rna

>  <m_subtype>
natural

>  <m_RgroupIdx>
11,12,9

>  <m_Rgroups>
H,H,OH

$$$$

MolEngine07221613482D

 32 32  0  0  0  0            999 V2000
    4.0956   11.8727    0.0000 C   0  0  0  0  0  0  0  0  0  0  0  0
    5.6186   11.8727    0.0000 C   0  0  0  0  0  0  0  0  0  0  0  0
    6.0894   13.3211    0.0000 C   0  0  0  0  0  0  0  0  0  0  0  0
    4.8571   14.2162    0.0000 O   0  0  0  0  0  0  0  0  0  0  0  0
    3.6251   13.3211    0.0000 C   0  0  0  0  0  0  0  0  0  0  0  0
    7.1662   14.3981    0.0000 R#  0  0  0  0  0  0  0  0  0  0  0  0
    2.5481   14.3981    0.0000 C   0  0  0  0  0  0  0  0  0  0  0  0
    3.2005   10.6406    0.0000 O   0  0  0  0  0  0  0  0  0  0  0  0
    6.5139   10.6406    0.0000 O   0  0  0  0  0  0  0  0  0  0  0  0
    8.0284   10.7997    0.0000 C   0  0  0  0  0  0  0  0  0  0  0  0
    8.9238    9.5675    0.0000 C   0  0  0  0  0  0  0  0  0  0  0  0
   10.4383    9.7268    0.0000 N   0  0  0  0  0  0  0  0  0  0  0  0
   11.3336    8.4946    0.0000 C   0  0  0  0  0  0  0  0  0  0  0  0
   12.8483    8.6539    0.0000 C   0  0  0  0  0  0  0  0  0  0  0  0
   13.7434    7.4216    0.0000 C   0  0  0  0  0  0  0  0  0  0  0  0
   15.2581    7.5810    0.0000 C   0  0  0  0  0  0  0  0  0  0  0  0
   16.1533    6.3487    0.0000 N   0  0  0  0  0  0  0  0  0  0  0  0
    8.3042    8.1763    0.0000 O   0  0  0  0  0  0  0  0  0  0  0  0
   17.6680    6.5080    0.0000 C   0  0  0  0  0  0  0  0  0  0  0  0
   18.5631    5.2758    0.0000 C   0  0  0  0  0  0  0  0  0  0  0  0
   18.2873    7.8994    0.0000 O   0  0  0  0  0  0  0  0  0  0  0  0
    1.0770   14.0039    0.0000 O   0  0  0  0  0  0  0  0  0  0  0  0
    3.2005    9.1176    0.0000 R#  0  0  0  0  0  0  0  0  0  0  0  0
    0.0000   15.0808    0.0000 R#  0  0  0  0  0  0  0  0  0  0  0  0
   20.0861    5.2758    0.0000 C   0  0  0  0  0  0  0  0  0  0  0  0
   20.8476    3.9568    0.0000 C   0  0  0  0  0  0  0  0  0  0  0  0
   22.3706    3.9568    0.0000 C   0  0  0  0  0  0  0  0  0  0  0  0
   23.1321    2.6379    0.0000 C   0  0  0  0  0  0  0  0  0  0  0  0
   24.6551    2.6379    0.0000 C   0  0  0  0  0  0  0  0  0  0  0  0
   25.4166    1.3189    0.0000 C   0  0  0  0  0  0  0  0  0  0  0  0
   26.9396    1.3189    0.0000 C   0  0  0  0  0  0  0  0  0  0  0  0
   27.7011    0.0000    0.0000 C   0  0  0  0  0  0  0  0  0  0  0  0
  1  2  1  0  0  0  0
  2  3  1  0  0  0  0
  3  4  1  0  0  0  0
  4  5  1  0  0  0  0
  5  1  1  0  0  0  0
  3  6  1  1  0  0  0
  5  7  1  1  0  0  0
  1  8  1  6  0  0  0
  2  9  1  6  0  0  0
  9 10  1  0  0  0  0
 10 11  1  0  0  0  0
 11 12  1  0  0  0  0
 12 13  1  0  0  0  0
 13 14  1  0  0  0  0
 14 15  1  0  0  0  0
 15 16  1  0  0  0  0
 16 17  1  0  0  0  0
 11 18  2  0  0  0  0
 17 19  1  0  0  0  0
 19 20  1  0  0  0  0
 19 21  2  0  0  0  0
  7 22  1  0  0  0  0
  8 23  1  0  0  0  0
 22 24  1  0  0  0  0
 20 25  1  0  0  0  0
 25 26  1  0  0  0  0
 26 27  1  0  0  0  0
 27 28  1  0  0  0  0
 28 29  1  0  0  0  0
 29 30  1  0  0  0  0
 30 31  1  0  0  0  0
 31 32  1  0  0  0  0
A    6
R3
A   23
R1
A   24
R2
M  END

>  <symbol>
C10aba2r

>  <m_abbr>
C10aba2r

>  <m_type>
rna

>  <m_subtype>
natural

>  <m_RgroupIdx>
22,23,5

>  <m_Rgroups>
H,H,OH

$$$$

MolEngine07221613482D

 16 17  0  0  0  0            999 V2000
    1.3587    8.8209    0.0000 R#  0  0  0  0  0  0  0  0  0  0  0  0
    1.3587    7.2979    0.0000 P   0  0  0  0  0  0  0  0  0  0  0  0
    0.0000    6.2984    0.0000 O   0  0  0  0  0  0  0  0  0  0  0  0
    0.0397    5.0134    0.0000 C   0  0  0  0  0  0  0  0  0  0  0  0
    1.3587    4.2519    0.0000 C   0  0  0  0  0  0  0  0  0  0  0  0
    2.6775    5.0134    0.0000 C   0  0  0  0  0  0  0  0  0  0  0  0
    2.6775    6.5364    0.0000 O   0  0  0  0  0  0  0  0  0  0  0  0
    4.4749    2.7553    0.0000 C   0  0  0  0  0  0  0  0  0  0  0  0
    5.9979    2.7553    0.0000 C   0  0  0  0  0  0  0  0  0  0  0  0
    6.4686    4.2037    0.0000 C   0  0  0  0  0  0  0  0  0  0  0  0
    5.2364    5.0988    0.0000 O   0  0  0  0  0  0  0  0  0  0  0  0
    4.0043    4.2037    0.0000 C   0  0  0  0  0  0  0  0  0  0  0  0
    0.1629    8.4540    0.0000 O   0  0  0  0  0  0  0  0  0  0  0  0
    3.5797    1.5230    0.0000 O   0  0  0  0  0  0  0  0  0  0  0  0
    7.9170    4.6742    0.0000 R#  0  0  0  0  0  0  0  0  0  0  0  0
    3.5797    0.0000    0.0000 R#  0  0  0  0  0  0  0  0  0  0  0  0
  1  2  1  0  0  0  0
  2  3  1  1  0  0  0
  3  4  1  0  0  0  0
  4  5  1  0  0  0  0
  5  6  1  0  0  0  0
  6  7  1  1  0  0  0
  7  2  1  0  0  0  0
  8  9  1  0  0  0  0
  9 10  1  0  0  0  0
 10 11  1  0  0  0  0
 12 11  1  1  0  0  0
 12  8  1  0  0  0  0
 12  6  1  0  0  0  0
  2 13  2  0  0  0  0
  8 14  1  6  0  0  0
 10 15  1  1  0  0  0
 14 16  1  0  0  0  0
A    1
R1
A   15
R3
A   16
R2
M  END

>  <symbol>
RSpabCNA

>  <m_abbr>
RSpabCNA

>  <m_type>
rna

>  <m_subtype>
natural

>  <m_RgroupIdx>
0,15,14

>  <m_Rgroups>
H,H,OH

$$$$

MolEngine07221613482D

 15 15  0  0  0  0            999 V2000
    5.6314    2.7553    0.0000 C   0  0  0  0  0  0  0  0  0  0  0  0
    7.2179    2.7553    0.0000 C   0  0  0  0  0  0  0  0  0  0  0  0
    7.6250    4.2037    0.0000 C   0  0  0  0  0  0  0  0  0  0  0  0
    6.3929    5.0989    0.0000 O   0  0  0  0  0  0  0  0  0  0  0  0
    5.1608    4.2037    0.0000 C   0  0  0  0  0  0  0  0  0  0  0  0
    9.0736    4.6743    0.0000 R#  0  0  0  0  0  0  0  0  0  0  0  0
    3.7122    4.6743    0.0000 C   0  0  0  0  0  0  0  0  0  0  0  0
    2.5803    3.6552    0.0000 C   0  0  0  0  0  0  0  0  0  0  0  0
    3.3956    6.1641    0.0000 O   0  0  0  0  0  0  0  0  0  0  0  0
    4.7362    1.5230    0.0000 O   0  0  0  0  0  0  0  0  0  0  0  0
    5.1608    5.7268    0.0000 H   0  0  0  0  0  0  0  0  0  0  0  0
    1.1319    4.1258    0.0000 C   0  0  0  0  0  0  0  0  0  0  0  0
    0.0000    3.1068    0.0000 O   0  0  0  0  0  0  0  0  0  0  0  0
    2.0766    6.9256    0.0000 R#  0  0  0  0  0  0  0  0  0  0  0  0
    4.7362    0.0000    0.0000 R#  0  0  0  0  0  0  0  0  0  0  0  0
  1  2  1  0  0  0  0
  2  3  1  0  0  0  0
  3  4  1  0  0  0  0
  4  5  1  0  0  0  0
  5  1  1  0  0  0  0
  3  6  1  1  0  0  0
  5  7  1  0  0  0  0
  7  8  1  6  0  0  0
  7  9  1  0  0  0  0
  1 10  1  6  0  0  0
  5 11  1  6  0  0  0
  8 12  1  0  0  0  0
 12 13  1  0  0  0  0
  9 14  1  0  0  0  0
 10 15  1  0  0  0  0
A    6
R3
A   14
R1
A   15
R2
M  END

>  <symbol>
She5d

>  <m_abbr>
She5d

>  <m_type>
rna

>  <m_subtype>
natural

>  <m_RgroupIdx>
13,14,5

>  <m_Rgroups>
H,H,OH

$$$$

MolEngine07221613482D

 15 16  0  0  0  0            999 V2000
    1.7527    5.5939    0.0000 C   0  0  0  0  0  0  0  0  0  0  0  0
    1.4711    7.0907    0.0000 O   0  0  0  0  0  0  0  0  0  0  0  0
    2.6360    3.9373    0.0000 C   0  0  0  0  0  0  0  0  0  0  0  0
    3.1886    5.0916    0.0000 C   0  0  0  0  0  0  0  0  0  0  0  0
    5.0974    3.6010    0.0000 C   0  0  0  0  0  0  0  0  0  0  0  0
    5.6492    5.0520    0.0000 C   0  0  0  0  0  0  0  0  0  0  0  0
    4.4823    6.0289    0.0000 O   0  0  0  0  0  0  0  0  0  0  0  0
    3.5111    1.5230    0.0000 O   0  0  0  0  0  0  0  0  0  0  0  0
    7.1244    5.4305    0.0000 R#  0  0  0  0  0  0  0  0  0  0  0  0
    2.6786    2.7617    0.0000 O   0  0  0  0  0  0  0  0  0  0  0  0
    3.5590    3.6144    0.0000 C   0  0  0  0  0  0  0  0  0  0  0  0
    0.0000    7.4849    0.0000 R#  0  0  0  0  0  0  0  0  0  0  0  0
    3.5111    0.0000    0.0000 R#  0  0  0  0  0  0  0  0  0  0  0  0
    5.0761    2.1603    0.0000 N   0  0  0  0  0  0  0  0  0  0  0  0
    6.0040    0.9526    0.0000 C   0  0  0  0  0  0  0  0  0  0  0  0
 14 10  1  0  0  0  0
  4  1  1  1  0  0  0
  1  2  1  0  0  0  0
  4 11  1  0  0  0  0
 11  5  1  0  0  0  0
  5  6  1  0  0  0  0
  6  7  1  0  0  0  0
  7  4  1  0  0  0  0
  6  9  1  1  0  0  0
  4  3  1  6  0  0  0
  5 14  1  6  0  0  0
 10  3  1  0  0  0  0
 11  8  1  6  0  0  0
  2 12  1  0  0  0  0
  8 13  1  0  0  0  0
 14 15  1  0  0  0  0
A    9
R3
A   12
R1
A   13
R2
M  END

>  <symbol>
mnobna

>  <m_abbr>
mnobna

>  <m_type>
rna

>  <m_subtype>
natural

>  <m_RgroupIdx>
11,12,8

>  <m_Rgroups>
H,H,OH

$$$$

MolEngine07221613482D

 14 15  0  0  0  0            999 V2000
    3.6219    2.8416    0.0000 C   0  0  0  0  0  0  0  0  0  0  0  0
    5.9564    1.5401    0.0000 C   0  0  0  0  0  0  0  0  0  0  0  0
    4.0689    4.4713    0.0000 C   0  0  0  0  0  0  0  0  0  0  0  0
    4.4394    2.9941    0.0000 C   0  0  0  0  0  0  0  0  0  0  0  0
    5.9777    2.9807    0.0000 C   0  0  0  0  0  0  0  0  0  0  0  0
    6.5295    4.4317    0.0000 C   0  0  0  0  0  0  0  0  0  0  0  0
    5.3626    5.4086    0.0000 O   0  0  0  0  0  0  0  0  0  0  0  0
    2.6378    4.9922    0.0000 C   0  0  0  0  0  0  0  0  0  0  0  0
    8.0047    4.8103    0.0000 R#  0  0  0  0  0  0  0  0  0  0  0  0
    1.4711    4.0133    0.0000 O   0  0  0  0  0  0  0  0  0  0  0  0
    0.0000    4.4075    0.0000 R#  0  0  0  0  0  0  0  0  0  0  0  0
    4.0452    1.5230    0.0000 O   0  0  0  0  0  0  0  0  0  0  0  0
    4.0452    0.0000    0.0000 R#  0  0  0  0  0  0  0  0  0  0  0  0
    7.4275    1.1459    0.0000 F   0  0  0  0  0  0  0  0  0  0  0  0
  1  2  1  0  0  0  0
  3  4  1  0  0  0  0
  4  5  1  0  0  0  0
  5  6  1  0  0  0  0
  6  7  1  0  0  0  0
  3  7  1  6  0  0  0
  3  8  1  1  0  0  0
  6  9  1  1  0  0  0
  8 10  1  0  0  0  0
  3  1  1  0  0  0  0
  5  2  1  6  0  0  0
 10 11  1  0  0  0  0
  4 12  1  6  0  0  0
 12 13  1  0  0  0  0
  2 14  1  6  0  0  0
A    9
R3
A   11
R1
A   13
R2
M  END

>  <symbol>
Rflclna

>  <m_abbr>
Rflclna

>  <m_type>
rna

>  <m_subtype>
natural

>  <m_RgroupIdx>
10,12,8

>  <m_Rgroups>
H,H,OH

$$$$

MolEngine07221613482D

 13 13  0  0  0  0            999 V2000
    4.5690    5.4798    0.0000 O   0  0  0  0  0  0  0  0  0  0  0  0
    3.8075    4.1609    0.0000 C   0  0  0  0  0  0  0  0  0  0  0  0
    4.5690    2.8419    0.0000 C   0  0  0  0  0  0  0  0  0  0  0  0
    6.0920    2.8419    0.0000 C   0  0  0  0  0  0  0  0  0  0  0  0
    6.8534    4.1609    0.0000 C   0  0  0  0  0  0  0  0  0  0  0  0
    6.0920    5.4798    0.0000 C   0  0  0  0  0  0  0  0  0  0  0  0
    8.3764    4.1609    0.0000 R#  0  0  0  0  0  0  0  0  0  0  0  0
    6.8534    1.5230    0.0000 F   0  0  0  0  0  0  0  0  0  0  0  0
    3.8075    1.5230    0.0000 O   0  0  0  0  0  0  0  0  0  0  0  0
    2.2845    4.1609    0.0000 C   0  0  0  0  0  0  0  0  0  0  0  0
    1.5230    2.8419    0.0000 O   0  0  0  0  0  0  0  0  0  0  0  0
    3.8075    0.0000    0.0000 R#  0  0  0  0  0  0  0  0  0  0  0  0
    0.0000    2.8419    0.0000 R#  0  0  0  0  0  0  0  0  0  0  0  0
  1  2  1  0  0  0  0
  2  3  1  0  0  0  0
  3  4  1  0  0  0  0
  4  5  1  0  0  0  0
  5  6  1  0  0  0  0
  6  1  1  0  0  0  0
  5  7  1  1  0  0  0
  4  8  1  1  0  0  0
  3  9  1  6  0  0  0
  2 10  1  1  0  0  0
 10 11  1  0  0  0  0
  9 12  1  0  0  0  0
 11 13  1  0  0  0  0
A    7
R3
A   12
R2
A   13
R1
M  END

>  <symbol>
afhna

>  <m_abbr>
afhna

>  <m_type>
rna

>  <m_subtype>
natural

>  <m_RgroupIdx>
12,11,6

>  <m_Rgroups>
H,H,OH

$$$$

MolEngine07221613482D

 13 13  0  0  0  0            999 V2000
    4.5690    5.4799    0.0000 O   0  0  0  0  0  0  0  0  0  0  0  0
    3.8075    4.1609    0.0000 C   0  0  0  0  0  0  0  0  0  0  0  0
    4.5690    2.8419    0.0000 C   0  0  0  0  0  0  0  0  0  0  0  0
    6.0920    2.8419    0.0000 C   0  0  0  0  0  0  0  0  0  0  0  0
    6.8535    4.1609    0.0000 C   0  0  0  0  0  0  0  0  0  0  0  0
    6.0920    5.4799    0.0000 C   0  0  0  0  0  0  0  0  0  0  0  0
    8.3765    4.1609    0.0000 R#  0  0  0  0  0  0  0  0  0  0  0  0
    6.8535    1.5230    0.0000 O   0  0  0  0  0  0  0  0  0  0  0  0
    3.8075    1.5230    0.0000 O   0  0  0  0  0  0  0  0  0  0  0  0
    2.2845    4.1609    0.0000 C   0  0  0  0  0  0  0  0  0  0  0  0
    1.5230    2.8419    0.0000 O   0  0  0  0  0  0  0  0  0  0  0  0
    3.8075    0.0000    0.0000 R#  0  0  0  0  0  0  0  0  0  0  0  0
    0.0000    2.8419    0.0000 R#  0  0  0  0  0  0  0  0  0  0  0  0
  1  2  1  0  0  0  0
  2  3  1  0  0  0  0
  3  4  1  0  0  0  0
  4  5  1  0  0  0  0
  5  6  1  0  0  0  0
  6  1  1  0  0  0  0
  5  7  1  1  0  0  0
  4  8  1  6  0  0  0
  3  9  1  6  0  0  0
  2 10  1  1  0  0  0
 10 11  1  0  0  0  0
  9 12  1  0  0  0  0
 11 13  1  0  0  0  0
A    7
R3
A   12
R2
A   13
R1
M  END

>  <symbol>
ana

>  <m_abbr>
ana

>  <m_type>
rna

>  <m_subtype>
natural

>  <m_RgroupIdx>
12,11,6

>  <m_Rgroups>
H,H,OH

$$$$

MolEngine07221613482D

 16 16  0  0  0  0            999 V2000
    4.5690    6.5948    0.0000 O   0  0  0  0  0  0  0  0  0  0  0  0
    3.8075    5.2758    0.0000 C   0  0  0  0  0  0  0  0  0  0  0  0
    4.5690    3.9568    0.0000 C   0  0  0  0  0  0  0  0  0  0  0  0
    6.0920    3.9568    0.0000 C   0  0  0  0  0  0  0  0  0  0  0  0
    6.8535    5.2758    0.0000 C   0  0  0  0  0  0  0  0  0  0  0  0
    6.0920    6.5948    0.0000 C   0  0  0  0  0  0  0  0  0  0  0  0
    8.3765    5.2758    0.0000 R#  0  0  0  0  0  0  0  0  0  0  0  0
    6.8535    2.6379    0.0000 O   0  0  0  0  0  0  0  0  0  0  0  0
    3.8075    2.6379    0.0000 O   0  0  0  0  0  0  0  0  0  0  0  0
    2.2845    5.2758    0.0000 C   0  0  0  0  0  0  0  0  0  0  0  0
    1.5230    3.9568    0.0000 O   0  0  0  0  0  0  0  0  0  0  0  0
    3.8075    1.1149    0.0000 R#  0  0  0  0  0  0  0  0  0  0  0  0
    0.0000    3.9568    0.0000 R#  0  0  0  0  0  0  0  0  0  0  0  0
    6.0920    1.3189    0.0000 C   0  0  0  0  0  0  0  0  0  0  0  0
    6.8535    0.0000    0.0000 C   0  0  0  0  0  0  0  0  0  0  0  0
    8.3765    0.0000    0.0000 F   0  0  0  0  0  0  0  0  0  0  0  0
  1  2  1  0  0  0  0
  2  3  1  0  0  0  0
  3  4  1  0  0  0  0
  4  5  1  0  0  0  0
  5  6  1  0  0  0  0
  6  1  1  0  0  0  0
  5  7  1  1  0  0  0
  4  8  1  6  0  0  0
  3  9  1  6  0  0  0
  2 10  1  1  0  0  0
 10 11  1  0  0  0  0
  9 12  1  0  0  0  0
 11 13  1  0  0  0  0
  8 14  1  0  0  0  0
 14 15  1  0  0  0  0
 15 16  1  0  0  0  0
A    7
R3
A   12
R2
A   13
R1
M  END

>  <symbol>
fleana

>  <m_abbr>
fleana

>  <m_type>
rna

>  <m_subtype>
natural

>  <m_RgroupIdx>
12,11,6

>  <m_Rgroups>
H,H,OH

$$$$

MolEngine07221613482D

 17 17  0  0  0  0            999 V2000
    4.0295    7.3041    0.0000 C   0  0  0  0  0  0  0  0  0  0  0  0
    4.4725    5.8470    0.0000 C   0  0  0  0  0  0  0  0  0  0  0  0
    5.9952    5.8180    0.0000 C   0  0  0  0  0  0  0  0  0  0  0  0
    6.4933    7.2572    0.0000 C   0  0  0  0  0  0  0  0  0  0  0  0
    5.2785    8.1757    0.0000 O   0  0  0  0  0  0  0  0  0  0  0  0
    2.5903    7.8022    0.0000 C   0  0  0  0  0  0  0  0  0  0  0  0
    3.5540    4.6321    0.0000 O   0  0  0  0  0  0  0  0  0  0  0  0
    1.4393    6.8049    0.0000 O   0  0  0  0  0  0  0  0  0  0  0  0
    0.0000    7.3030    0.0000 R#  0  0  0  0  0  0  0  0  0  0  0  0
    3.6048    3.1099    0.0000 R#  0  0  0  0  0  0  0  0  0  0  0  0
    6.8668    4.5690    0.0000 O   0  0  0  0  0  0  0  0  0  0  0  0
    7.9505    7.7002    0.0000 R#  0  0  0  0  0  0  0  0  0  0  0  0
    6.8668    3.0460    0.0000 C   0  0  0  0  0  0  0  0  0  0  0  0
    8.1858    2.2846    0.0000 C   0  0  0  0  0  0  0  0  0  0  0  0
    8.1858    0.7615    0.0000 O   0  0  0  0  0  0  0  0  0  0  0  0
    9.5047    0.0000    0.0000 C   0  0  0  0  0  0  0  0  0  0  0  0
    2.3020    9.2977    0.0000 C   0  0  0  0  0  0  0  0  0  0  0  0
  1  2  1  0  0  0  0
  2  3  1  0  0  0  0
  3  4  1  0  0  0  0
  4  5  1  0  0  0  0
  1  5  1  1  0  0  0
  1  6  1  0  0  0  0
  2  7  1  6  0  0  0
  6  8  1  0  0  0  0
  8  9  1  0  0  0  0
  7 10  1  0  0  0  0
  3 11  1  6  0  0  0
  4 12  1  1  0  0  0
 11 13  1  0  0  0  0
 13 14  1  0  0  0  0
 14 15  1  0  0  0  0
 15 16  1  0  0  0  0
  6 17  1  6  0  0  0
A    9
R1
A   10
R2
A   12
R3
M  END

>  <symbol>
Rm5moe

>  <m_abbr>
Rm5moe

>  <m_type>
rna

>  <m_subtype>
natural

>  <m_RgroupIdx>
8,9,11

>  <m_Rgroups>
H,H,OH

$$$$

MolEngine07221613482D

 13 13  0  0  0  0            999 V2000
    4.5690    5.4799    0.0000 O   0  0  0  0  0  0  0  0  0  0  0  0
    3.8075    4.1609    0.0000 C   0  0  0  0  0  0  0  0  0  0  0  0
    4.5690    2.8420    0.0000 C   0  0  0  0  0  0  0  0  0  0  0  0
    6.0920    2.8420    0.0000 C   0  0  0  0  0  0  0  0  0  0  0  0
    6.8535    4.1609    0.0000 C   0  0  0  0  0  0  0  0  0  0  0  0
    6.0920    5.4799    0.0000 C   0  0  0  0  0  0  0  0  0  0  0  0
    8.3765    4.1609    0.0000 R#  0  0  0  0  0  0  0  0  0  0  0  0
    6.8535    1.5230    0.0000 Cl  0  0  0  0  0  0  0  0  0  0  0  0
    3.8075    1.5230    0.0000 O   0  0  0  0  0  0  0  0  0  0  0  0
    2.2845    4.1609    0.0000 C   0  0  0  0  0  0  0  0  0  0  0  0
    1.5230    2.8420    0.0000 O   0  0  0  0  0  0  0  0  0  0  0  0
    3.8075    0.0000    0.0000 R#  0  0  0  0  0  0  0  0  0  0  0  0
    0.0000    2.8420    0.0000 R#  0  0  0  0  0  0  0  0  0  0  0  0
  1  2  1  0  0  0  0
  2  3  1  0  0  0  0
  3  4  1  0  0  0  0
  4  5  1  0  0  0  0
  5  6  1  0  0  0  0
  6  1  1  0  0  0  0
  5  7  1  1  0  0  0
  4  8  1  6  0  0  0
  3  9  1  6  0  0  0
  2 10  1  1  0  0  0
 10 11  1  0  0  0  0
  9 12  1  0  0  0  0
 11 13  1  0  0  0  0
A    7
R3
A   12
R2
A   13
R1
M  END

>  <symbol>
clhna

>  <m_abbr>
clhna

>  <m_type>
rna

>  <m_subtype>
natural

>  <m_RgroupIdx>
12,11,6

>  <m_Rgroups>
H,H,OH

$$$$

MolEngine07221613482D

 15 15  0  0  0  0            999 V2000
    2.5902    7.3041    0.0000 C   0  0  0  0  0  0  0  0  0  0  0  0
    3.0332    5.8470    0.0000 C   0  0  0  0  0  0  0  0  0  0  0  0
    4.5559    5.8180    0.0000 C   0  0  0  0  0  0  0  0  0  0  0  0
    5.0540    7.2572    0.0000 C   0  0  0  0  0  0  0  0  0  0  0  0
    3.8391    8.1757    0.0000 O   0  0  0  0  0  0  0  0  0  0  0  0
    1.1510    7.8022    0.0000 C   0  0  0  0  0  0  0  0  0  0  0  0
    2.1147    4.6321    0.0000 O   0  0  0  0  0  0  0  0  0  0  0  0
    2.1655    3.1099    0.0000 R#  0  0  0  0  0  0  0  0  0  0  0  0
    5.4275    4.5690    0.0000 O   0  0  0  0  0  0  0  0  0  0  0  0
    6.5112    7.7002    0.0000 R#  0  0  0  0  0  0  0  0  0  0  0  0
    5.4275    3.0460    0.0000 C   0  0  0  0  0  0  0  0  0  0  0  0
    6.7464    2.2845    0.0000 C   0  0  0  0  0  0  0  0  0  0  0  0
    6.7464    0.7615    0.0000 O   0  0  0  0  0  0  0  0  0  0  0  0
    8.0654    0.0000    0.0000 C   0  0  0  0  0  0  0  0  0  0  0  0
    0.0000    6.8049    0.0000 R#  0  0  0  0  0  0  0  0  0  0  0  0
  1  2  1  0  0  0  0
  2  3  1  0  0  0  0
  3  4  1  0  0  0  0
  4  5  1  0  0  0  0
  5  1  1  0  0  0  0
  1  6  1  1  0  0  0
  2  7  1  6  0  0  0
  7  8  1  0  0  0  0
  3  9  1  6  0  0  0
  4 10  1  1  0  0  0
  9 11  1  0  0  0  0
 11 12  1  0  0  0  0
 12 13  1  0  0  0  0
 13 14  1  0  0  0  0
  6 15  1  0  0  0  0
A    8
R2
A   10
R3
A   15
R1
M  END

>  <symbol>
d5moe

>  <m_abbr>
d5moe

>  <m_type>
rna

>  <m_subtype>
natural

>  <m_RgroupIdx>
14,7,9

>  <m_Rgroups>
H,H,OH

$$$$

MolEngine07221613482D

 15 16  0  0  0  0            999 V2000
    3.6218    2.6695    0.0000 C   0  0  0  0  0  0  0  0  0  0  0  0
    5.9563    1.3680    0.0000 O   0  0  0  0  0  0  0  0  0  0  0  0
    4.0689    4.2992    0.0000 C   0  0  0  0  0  0  0  0  0  0  0  0
    4.4393    2.8220    0.0000 C   0  0  0  0  0  0  0  0  0  0  0  0
    5.9777    2.8086    0.0000 C   0  0  0  0  0  0  0  0  0  0  0  0
    6.5295    4.2596    0.0000 C   0  0  0  0  0  0  0  0  0  0  0  0
    5.3626    5.2365    0.0000 O   0  0  0  0  0  0  0  0  0  0  0  0
    3.9159    1.5230    0.0000 O   0  0  0  0  0  0  0  0  0  0  0  0
    2.6378    4.8201    0.0000 C   0  0  0  0  0  0  0  0  0  0  0  0
    8.0047    4.6382    0.0000 R#  0  0  0  0  0  0  0  0  0  0  0  0
    1.4711    3.8412    0.0000 O   0  0  0  0  0  0  0  0  0  0  0  0
    0.0000    4.2354    0.0000 R#  0  0  0  0  0  0  0  0  0  0  0  0
    3.9159    0.0000    0.0000 R#  0  0  0  0  0  0  0  0  0  0  0  0
    2.3733    6.3200    0.0000 C   0  0  0  0  0  0  0  0  0  0  0  0
    2.2174    2.0803    0.0000 C   0  0  0  0  0  0  0  0  0  0  0  0
  1  2  1  0  0  0  0
  3  4  1  0  0  0  0
  4  5  1  0  0  0  0
  5  6  1  0  0  0  0
  6  7  1  0  0  0  0
  3  7  1  6  0  0  0
  4  8  1  6  0  0  0
  3  9  1  0  0  0  0
  6 10  1  1  0  0  0
  9 11  1  0  0  0  0
  3  1  1  0  0  0  0
  5  2  1  6  0  0  0
 11 12  1  0  0  0  0
  8 13  1  0  0  0  0
  9 14  1  1  0  0  0
  1 15  1  1  0  0  0
A   10
R3
A   12
R1
A   13
R2
M  END

>  <symbol>
5S6Sm5cEt

>  <m_abbr>
5S6Sm5cEt

>  <m_type>
rna

>  <m_subtype>
natural

>  <m_RgroupIdx>
11,12,9

>  <m_Rgroups>
H,H,OH

$$$$

MolEngine07221613482D

 15 16  0  0  0  0            999 V2000
    3.6219    2.6695    0.0000 C   0  0  0  0  0  0  0  0  0  0  0  0
    5.9564    1.3680    0.0000 O   0  0  0  0  0  0  0  0  0  0  0  0
    4.0690    4.2992    0.0000 C   0  0  0  0  0  0  0  0  0  0  0  0
    4.4394    2.8220    0.0000 C   0  0  0  0  0  0  0  0  0  0  0  0
    5.9777    2.8086    0.0000 C   0  0  0  0  0  0  0  0  0  0  0  0
    6.5295    4.2596    0.0000 C   0  0  0  0  0  0  0  0  0  0  0  0
    5.3626    5.2365    0.0000 O   0  0  0  0  0  0  0  0  0  0  0  0
    3.9160    1.5230    0.0000 O   0  0  0  0  0  0  0  0  0  0  0  0
    2.6378    4.8201    0.0000 C   0  0  0  0  0  0  0  0  0  0  0  0
    8.0047    4.6381    0.0000 R#  0  0  0  0  0  0  0  0  0  0  0  0
    1.4711    3.8412    0.0000 O   0  0  0  0  0  0  0  0  0  0  0  0
    0.0000    4.2354    0.0000 R#  0  0  0  0  0  0  0  0  0  0  0  0
    3.9160    0.0000    0.0000 R#  0  0  0  0  0  0  0  0  0  0  0  0
    2.3733    6.3200    0.0000 C   0  0  0  0  0  0  0  0  0  0  0  0
    2.2175    2.0803    0.0000 C   0  0  0  0  0  0  0  0  0  0  0  0
  1  2  1  0  0  0  0
  3  4  1  0  0  0  0
  4  5  1  0  0  0  0
  5  6  1  0  0  0  0
  6  7  1  0  0  0  0
  3  7  1  6  0  0  0
  4  8  1  6  0  0  0
  3  9  1  0  0  0  0
  6 10  1  1  0  0  0
  9 11  1  0  0  0  0
  3  1  1  0  0  0  0
  5  2  1  6  0  0  0
 11 12  1  0  0  0  0
  8 13  1  0  0  0  0
  9 14  1  6  0  0  0
  1 15  1  1  0  0  0
A   10
R3
A   12
R1
A   13
R2
M  END

>  <symbol>
5R6Sm5cEt

>  <m_abbr>
5R6Sm5cEt

>  <m_type>
rna

>  <m_subtype>
natural

>  <m_RgroupIdx>
11,12,9

>  <m_Rgroups>
H,H,OH

$$$$

MolEngine07221613482D

 15 17  0  0  0  0            999 V2000
    3.6734    2.9953    0.0000 C   0  0  0  0  0  0  0  0  0  0  0  0
    5.1771    2.5068    0.0000 C   0  0  0  0  0  0  0  0  0  0  0  0
    6.0090    3.7542    0.0000 C   0  0  0  0  0  0  0  0  0  0  0  0
    5.1167    4.9820    0.0000 O   0  0  0  0  0  0  0  0  0  0  0  0
    3.6734    4.5130    0.0000 C   0  0  0  0  0  0  0  0  0  0  0  0
    7.5267    3.7542    0.0000 R#  0  0  0  0  0  0  0  0  0  0  0  0
    3.6734    1.4776    0.0000 O   0  0  0  0  0  0  0  0  0  0  0  0
    2.2300    4.9819    0.0000 C   0  0  0  0  0  0  0  0  0  0  0  0
    1.3378    3.7541    0.0000 C   0  0  0  0  0  0  0  0  0  0  0  0
    2.2300    2.5261    0.0000 C   0  0  0  0  0  0  0  0  0  0  0  0
    3.6734    6.0307    0.0000 H   0  0  0  0  0  0  0  0  0  0  0  0
    1.7610    6.4253    0.0000 O   0  0  0  0  0  0  0  0  0  0  0  0
    0.0000    6.4253    0.0000 R#  0  0  0  0  0  0  0  0  0  0  0  0
    2.7533    0.0000    0.0000 R#  0  0  0  0  0  0  0  0  0  0  0  0
    0.7206    5.1406    0.0000 C   0  0  0  0  0  0  0  0  0  0  0  0
  1  2  1  0  0  0  0
  2  3  1  0  0  0  0
  3  4  1  0  0  0  0
  4  5  1  0  0  0  0
  5  1  1  0  0  0  0
  3  6  1  1  0  0  0
  1  7  1  6  0  0  0
  5  8  1  0  0  0  0
  8  9  1  0  0  0  0
  9 10  1  0  0  0  0
 10  1  1  0  0  0  0
  5 11  1  6  0  0  0
  8 12  1  1  0  0  0
 12 13  1  0  0  0  0
  7 14  1  0  0  0  0
  8 15  1  6  0  0  0
  9 15  1  6  0  0  0
A    6
R3
A   13
R1
A   14
R2
M  END

>  <symbol>
tcdna

>  <m_abbr>
tcdna

>  <m_type>
rna

>  <m_subtype>
natural

>  <m_RgroupIdx>
12,13,5

>  <m_Rgroups>
H,H,OH

$$$$

MolEngine07221613482D

 17 17  0  0  0  0            999 V2000
    4.0293    6.4832    0.0000 C   0  0  0  0  0  0  0  0  0  0  0  0
    4.4331    5.0305    0.0000 C   0  0  0  0  0  0  0  0  0  0  0  0
    5.9559    5.0560    0.0000 C   0  0  0  0  0  0  0  0  0  0  0  0
    6.4654    6.5059    0.0000 C   0  0  0  0  0  0  0  0  0  0  0  0
    5.2860    7.4433    0.0000 O   0  0  0  0  0  0  0  0  0  0  0  0
    3.5217    3.8103    0.0000 O   0  0  0  0  0  0  0  0  0  0  0  0
    2.5854    6.9675    0.0000 C   0  0  0  0  0  0  0  0  0  0  0  0
    7.9289    6.9277    0.0000 R#  0  0  0  0  0  0  0  0  0  0  0  0
    1.4439    5.9592    0.0000 O   0  0  0  0  0  0  0  0  0  0  0  0
    0.0000    6.4436    0.0000 R#  0  0  0  0  0  0  0  0  0  0  0  0
    6.8467    3.8207    0.0000 O   0  0  0  0  0  0  0  0  0  0  0  0
    3.5217    2.2820    0.0000 R#  0  0  0  0  0  0  0  0  0  0  0  0
    6.8467    2.2924    0.0000 C   0  0  0  0  0  0  0  0  0  0  0  0
    8.1702    1.5283    0.0000 C   0  0  0  0  0  0  0  0  0  0  0  0
    9.4938    2.2924    0.0000 F   0  0  0  0  0  0  0  0  0  0  0  0
    8.1702    0.0000    0.0000 F   0  0  0  0  0  0  0  0  0  0  0  0
    9.4938    0.7641    0.0000 F   0  0  0  0  0  0  0  0  0  0  0  0
  1  2  1  0  0  0  0
  2  3  1  0  0  0  0
  3  4  1  0  0  0  0
  4  5  1  0  0  0  0
  5  1  1  0  0  0  0
  2  6  1  6  0  0  0
  3 11  1  6  0  0  0
  1  7  1  1  0  0  0
  4  8  1  1  0  0  0
  7  9  1  0  0  0  0
  9 10  1  0  0  0  0
  6 12  1  0  0  0  0
 11 13  1  0  0  0  0
 13 14  1  0  0  0  0
 14 15  1  0  0  0  0
 14 16  1  0  0  0  0
 14 17  1  0  0  0  0
A    8
R3
A   10
R1
A   12
R2
M  END

>  <symbol>
fl3e2r

>  <m_abbr>
fl3e2r

>  <m_type>
rna

>  <m_subtype>
natural

>  <m_RgroupIdx>
9,11,7

>  <m_Rgroups>
H,H,OH

$$$$

MolEngine07221613482D

 18 19  0  0  0  0            999 V2000
    3.8322    5.4144    0.0000 C   0  0  0  0  0  0  0  0  0  0  0  0
    5.3554    5.4144    0.0000 C   0  0  0  0  0  0  0  0  0  0  0  0
    5.8259    6.8631    0.0000 C   0  0  0  0  0  0  0  0  0  0  0  0
    4.5938    7.7584    0.0000 O   0  0  0  0  0  0  0  0  0  0  0  0
    3.3616    6.8631    0.0000 C   0  0  0  0  0  0  0  0  0  0  0  0
    2.6001    8.1821    0.0000 C   0  0  0  0  0  0  0  0  0  0  0  0
    1.0770    8.1821    0.0000 O   0  0  0  0  0  0  0  0  0  0  0  0
    3.4381    3.9434    0.0000 O   0  0  0  0  0  0  0  0  0  0  0  0
    6.5875    8.1821    0.0000 R#  0  0  0  0  0  0  0  0  0  0  0  0
    2.9700    5.4021    0.0000 C   0  0  0  0  0  0  0  0  0  0  0  0
    5.3578    3.9434    0.0000 N   0  0  0  0  0  0  0  0  0  0  0  0
    0.0000    9.2591    0.0000 R#  0  0  0  0  0  0  0  0  0  0  0  0
    3.4381    2.4203    0.0000 R#  0  0  0  0  0  0  0  0  0  0  0  0
    6.1167    2.6289    0.0000 O   0  0  0  0  0  0  0  0  0  0  0  0
    7.6346    2.6289    0.0000 C   0  0  0  0  0  0  0  0  0  0  0  0
    8.3935    1.3144    0.0000 C   0  0  0  0  0  0  0  0  0  0  0  0
    9.9113    1.3144    0.0000 O   0  0  0  0  0  0  0  0  0  0  0  0
   10.6702    0.0000    0.0000 C   0  0  0  0  0  0  0  0  0  0  0  0
  1  2  1  0  0  0  0
  2  3  1  0  0  0  0
  3  4  1  0  0  0  0
  5  4  1  6  0  0  0
  5  1  1  0  0  0  0
  5  6  1  1  0  0  0
  6  7  1  0  0  0  0
  3  9  1  1  0  0  0
  5 10  1  0  0  0  0
  2 11  1  6  0  0  0
 10 11  1  0  0  0  0
  1  8  1  6  0  0  0
 11 14  1  0  0  0  0
  7 12  1  0  0  0  0
  8 13  1  0  0  0  0
 17 18  1  0  0  0  0
 16 17  1  0  0  0  0
 15 16  1  0  0  0  0
 14 15  1  0  0  0  0
A    9
R3
A   12
R1
A   13
R2
M  END

>  <symbol>
moeon2lna

>  <m_abbr>
moeon2lna

>  <m_type>
rna

>  <m_subtype>
natural

>  <m_RgroupIdx>
11,12,8

>  <m_Rgroups>
H,H,OH

$$$$

MolEngine07221613482D

 13 14  0  0  0  0            999 V2000
    3.6218    2.8416    0.0000 C   0  0  0  0  0  0  0  0  0  0  0  0
    5.9563    1.5401    0.0000 S   0  0  0  0  0  0  0  0  0  0  0  0
    4.0689    4.4714    0.0000 C   0  0  0  0  0  0  0  0  0  0  0  0
    4.4393    2.9941    0.0000 C   0  0  0  0  0  0  0  0  0  0  0  0
    5.9777    2.9808    0.0000 C   0  0  0  0  0  0  0  0  0  0  0  0
    6.5295    4.4317    0.0000 C   0  0  0  0  0  0  0  0  0  0  0  0
    5.3625    5.4086    0.0000 O   0  0  0  0  0  0  0  0  0  0  0  0
    2.6378    4.9923    0.0000 C   0  0  0  0  0  0  0  0  0  0  0  0
    8.0047    4.8103    0.0000 R#  0  0  0  0  0  0  0  0  0  0  0  0
    1.4711    4.0133    0.0000 O   0  0  0  0  0  0  0  0  0  0  0  0
    0.0000    4.4075    0.0000 R#  0  0  0  0  0  0  0  0  0  0  0  0
    4.0451    1.5230    0.0000 O   0  0  0  0  0  0  0  0  0  0  0  0
    4.0451    0.0000    0.0000 R#  0  0  0  0  0  0  0  0  0  0  0  0
  1  2  1  0  0  0  0
  3  4  1  0  0  0  0
  4  5  1  0  0  0  0
  5  6  1  0  0  0  0
  6  7  1  0  0  0  0
  3  7  1  6  0  0  0
  3  8  1  1  0  0  0
  6  9  1  1  0  0  0
  8 10  1  0  0  0  0
  3  1  1  0  0  0  0
  5  2  1  6  0  0  0
 10 11  1  0  0  0  0
  4 12  1  6  0  0  0
 12 13  1  0  0  0  0
A    9
R3
A   11
R1
A   13
R2
M  END

>  <symbol>
s2lna

>  <m_abbr>
s2lna

>  <m_type>
rna

>  <m_subtype>
natural

>  <m_RgroupIdx>
10,12,8

>  <m_Rgroups>
H,H,OH

$$$$

MolEngine07221613482D

 16 18  0  0  0  0            999 V2000
    3.9013    1.5452    0.0000 C   0  0  0  0  0  0  0  0  0  0  0  0
    5.4243    1.5452    0.0000 C   0  0  0  0  0  0  0  0  0  0  0  0
    5.8949    2.9938    0.0000 C   0  0  0  0  0  0  0  0  0  0  0  0
    4.6629    3.8889    0.0000 O   0  0  0  0  0  0  0  0  0  0  0  0
    3.4308    2.9938    0.0000 C   0  0  0  0  0  0  0  0  0  0  0  0
    3.4572    4.0413    0.0000 C   0  0  0  0  0  0  0  0  0  0  0  0
    5.2673    2.7374    0.0000 O   0  0  0  0  0  0  0  0  0  0  0  0
    7.3435    3.4644    0.0000 R#  0  0  0  0  0  0  0  0  0  0  0  0
    4.5187    0.1586    0.0000 O   0  0  0  0  0  0  0  0  0  0  0  0
    1.9462    3.3093    0.0000 C   0  0  0  0  0  0  0  0  0  0  0  0
    0.9218    2.1786    0.0000 C   0  0  0  0  0  0  0  0  0  0  0  0
    1.3925    0.7301    0.0000 C   0  0  0  0  0  0  0  0  0  0  0  0
    2.8823    0.4133    0.0000 C   0  0  0  0  0  0  0  0  0  0  0  0
    1.4712    4.7562    0.0000 O   0  0  0  0  0  0  0  0  0  0  0  0
    0.0000    5.1504    0.0000 R#  0  0  0  0  0  0  0  0  0  0  0  0
    6.0282    0.0000    0.0000 R#  0  0  0  0  0  0  0  0  0  0  0  0
  1  2  1  0  0  0  0
  2  3  1  0  0  0  0
  3  4  1  0  0  0  0
  4  5  1  0  0  0  0
  5  1  1  0  0  0  0
  5  6  1  1  0  0  0
  2  7  1  1  0  0  0
  7  6  1  0  0  0  0
  3  8  1  1  0  0  0
  1  9  1  1  0  0  0
  5 10  1  0  0  0  0
 10 11  1  0  0  0  0
 11 12  1  0  0  0  0
 12 13  1  0  0  0  0
 13  1  1  0  0  0  0
 10 14  1  6  0  0  0
 14 15  1  0  0  0  0
  9 16  1  0  0  0  0
A    8
R3
A   15
R1
A   16
R2
M  END

>  <symbol>
aLtrina2

>  <m_abbr>
aLtrina2

>  <m_type>
rna

>  <m_subtype>
natural

>  <m_RgroupIdx>
14,15,7

>  <m_Rgroups>
H,H,OH

$$$$

MolEngine07221613482D

 15 15  0  0  0  0            999 V2000
    3.9168    4.1935    0.0000 C   0  0  0  0  0  0  0  0  0  0  0  0
    4.2872    2.7162    0.0000 C   0  0  0  0  0  0  0  0  0  0  0  0
    5.8255    2.7029    0.0000 C   0  0  0  0  0  0  0  0  0  0  0  0
    6.3773    4.1538    0.0000 C   0  0  0  0  0  0  0  0  0  0  0  0
    5.2104    5.1307    0.0000 O   0  0  0  0  0  0  0  0  0  0  0  0
    3.3407    1.5230    0.0000 O   0  0  0  0  0  0  0  0  0  0  0  0
    2.4856    4.7144    0.0000 C   0  0  0  0  0  0  0  0  0  0  0  0
    7.8525    4.5324    0.0000 R#  0  0  0  0  0  0  0  0  0  0  0  0
    1.3189    3.7354    0.0000 O   0  0  0  0  0  0  0  0  0  0  0  0
    0.0000    4.4969    0.0000 R#  0  0  0  0  0  0  0  0  0  0  0  0
    3.3407    0.0000    0.0000 R#  0  0  0  0  0  0  0  0  0  0  0  0
    6.6397    1.4164    0.0000 O   0  0  0  0  0  0  0  0  0  0  0  0
   10.4472    0.0974    0.0000 C   0  0  0  0  0  0  0  0  0  0  0  0
    8.9242    0.0974    0.0000 C   0  0  0  0  0  0  0  0  0  0  0  0
    8.1627    1.4164    0.0000 C   0  0  0  0  0  0  0  0  0  0  0  0
  1  2  1  0  0  0  0
  2  3  1  0  0  0  0
  3  4  1  0  0  0  0
  4  5  1  0  0  0  0
  5  1  1  0  0  0  0
  2  6  1  6  0  0  0
  3 12  1  6  0  0  0
  1  7  1  1  0  0  0
  4  8  1  1  0  0  0
  7  9  1  0  0  0  0
  9 10  1  0  0  0  0
  6 11  1  0  0  0  0
 14 15  1  0  0  0  0
 13 14  1  0  0  0  0
 12 15  1  0  0  0  0
A    8
R3
A   10
R1
A   11
R2
M  END

>  <symbol>
pr2r

>  <m_abbr>
pr2r

>  <m_type>
rna

>  <m_subtype>
natural

>  <m_RgroupIdx>
9,10,7

>  <m_Rgroups>
H,H,OH

$$$$

MolEngine07221613482D

 16 16  0  0  0  0            999 V2000
    3.9168    5.4150    0.0000 C   0  0  0  0  0  0  0  0  0  0  0  0
    4.2872    3.9377    0.0000 C   0  0  0  0  0  0  0  0  0  0  0  0
    5.8255    3.9244    0.0000 C   0  0  0  0  0  0  0  0  0  0  0  0
    6.3773    5.3753    0.0000 C   0  0  0  0  0  0  0  0  0  0  0  0
    5.2104    6.3522    0.0000 O   0  0  0  0  0  0  0  0  0  0  0  0
    3.3407    2.7445    0.0000 O   0  0  0  0  0  0  0  0  0  0  0  0
    2.4856    5.9359    0.0000 C   0  0  0  0  0  0  0  0  0  0  0  0
    7.8525    5.7539    0.0000 R#  0  0  0  0  0  0  0  0  0  0  0  0
    1.3189    4.9569    0.0000 O   0  0  0  0  0  0  0  0  0  0  0  0
    0.0000    5.7184    0.0000 R#  0  0  0  0  0  0  0  0  0  0  0  0
    3.3407    1.2215    0.0000 R#  0  0  0  0  0  0  0  0  0  0  0  0
    6.6397    2.6379    0.0000 O   0  0  0  0  0  0  0  0  0  0  0  0
   10.4472    1.3189    0.0000 C   0  0  0  0  0  0  0  0  0  0  0  0
    8.9242    1.3189    0.0000 C   0  0  0  0  0  0  0  0  0  0  0  0
    8.1627    2.6379    0.0000 C   0  0  0  0  0  0  0  0  0  0  0  0
   11.2087    0.0000    0.0000 N   0  0  0  0  0  0  0  0  0  0  0  0
  1  2  1  0  0  0  0
  2  3  1  0  0  0  0
  3  4  1  0  0  0  0
  4  5  1  0  0  0  0
  5  1  1  0  0  0  0
  2  6  1  6  0  0  0
  3 12  1  6  0  0  0
  1  7  1  1  0  0  0
  4  8  1  1  0  0  0
  7  9  1  0  0  0  0
  9 10  1  0  0  0  0
  6 11  1  0  0  0  0
 14 15  1  0  0  0  0
 13 14  1  0  0  0  0
 12 15  1  0  0  0  0
 13 16  1  0  0  0  0
A    8
R3
A   10
R1
A   11
R2
M  END

>  <symbol>
npr2r

>  <m_abbr>
npr2r

>  <m_type>
rna

>  <m_subtype>
natural

>  <m_RgroupIdx>
9,10,7

>  <m_Rgroups>
H,H,OH

$$$$

MolEngine07221613482D

 17 17  0  0  0  0            999 V2000
    3.9168    5.4150    0.0000 C   0  0  0  0  0  0  0  0  0  0  0  0
    4.2872    3.9377    0.0000 C   0  0  0  0  0  0  0  0  0  0  0  0
    5.8256    3.9243    0.0000 C   0  0  0  0  0  0  0  0  0  0  0  0
    6.3774    5.3753    0.0000 C   0  0  0  0  0  0  0  0  0  0  0  0
    5.2104    6.3522    0.0000 O   0  0  0  0  0  0  0  0  0  0  0  0
    3.3407    2.7445    0.0000 O   0  0  0  0  0  0  0  0  0  0  0  0
    2.4856    5.9358    0.0000 C   0  0  0  0  0  0  0  0  0  0  0  0
    7.8526    5.7539    0.0000 R#  0  0  0  0  0  0  0  0  0  0  0  0
    1.3190    4.9569    0.0000 O   0  0  0  0  0  0  0  0  0  0  0  0
    0.0000    5.7184    0.0000 R#  0  0  0  0  0  0  0  0  0  0  0  0
    3.3407    1.2215    0.0000 R#  0  0  0  0  0  0  0  0  0  0  0  0
    6.6397    2.6379    0.0000 O   0  0  0  0  0  0  0  0  0  0  0  0
   10.4472    1.3189    0.0000 C   0  0  0  0  0  0  0  0  0  0  0  0
    8.9242    1.3189    0.0000 C   0  0  0  0  0  0  0  0  0  0  0  0
    8.1627    2.6379    0.0000 C   0  0  0  0  0  0  0  0  0  0  0  0
   11.2087    0.0000    0.0000 C   0  0  0  0  0  0  0  0  0  0  0  0
   12.7317    0.0000    0.0000 C   0  0  0  0  0  0  0  0  0  0  0  0
  1  2  1  0  0  0  0
  2  3  1  0  0  0  0
  3  4  1  0  0  0  0
  4  5  1  0  0  0  0
  5  1  1  0  0  0  0
  2  6  1  6  0  0  0
  3 12  1  6  0  0  0
  1  7  1  1  0  0  0
  4  8  1  1  0  0  0
  7  9  1  0  0  0  0
  9 10  1  0  0  0  0
  6 11  1  0  0  0  0
 14 15  1  0  0  0  0
 13 14  1  0  0  0  0
 12 15  1  0  0  0  0
 13 16  1  0  0  0  0
 16 17  1  0  0  0  0
A    8
R3
A   10
R1
A   11
R2
M  END

>  <symbol>
C52r

>  <m_abbr>
C52r

>  <m_type>
rna

>  <m_subtype>
natural

>  <m_RgroupIdx>
9,10,7

>  <m_Rgroups>
H,H,OH

$$$$

MolEngine07221613482D

 18 19  0  0  0  0            999 V2000
    4.0153    7.2223    0.0000 C   0  0  0  0  0  0  0  0  0  0  0  0
    4.4177    5.7746    0.0000 C   0  0  0  0  0  0  0  0  0  0  0  0
    5.9352    5.8000    0.0000 C   0  0  0  0  0  0  0  0  0  0  0  0
    6.4430    7.2448    0.0000 C   0  0  0  0  0  0  0  0  0  0  0  0
    5.2677    8.1790    0.0000 O   0  0  0  0  0  0  0  0  0  0  0  0
    3.5095    4.5586    0.0000 O   0  0  0  0  0  0  0  0  0  0  0  0
    2.5764    7.7049    0.0000 C   0  0  0  0  0  0  0  0  0  0  0  0
    7.9014    7.6652    0.0000 R#  0  0  0  0  0  0  0  0  0  0  0  0
    1.4390    6.7001    0.0000 O   0  0  0  0  0  0  0  0  0  0  0  0
    0.0000    7.1828    0.0000 R#  0  0  0  0  0  0  0  0  0  0  0  0
    6.8229    4.5690    0.0000 O   0  0  0  0  0  0  0  0  0  0  0  0
    3.5095    3.0356    0.0000 R#  0  0  0  0  0  0  0  0  0  0  0  0
    6.8229    3.0460    0.0000 C   0  0  0  0  0  0  0  0  0  0  0  0
    5.5040    2.2845    0.0000 C   0  0  0  0  0  0  0  0  0  0  0  0
    5.5040    0.7615    0.0000 C   0  0  0  0  0  0  0  0  0  0  0  0
    6.8229    0.0000    0.0000 C   0  0  0  0  0  0  0  0  0  0  0  0
    8.1419    0.7615    0.0000 C   0  0  0  0  0  0  0  0  0  0  0  0
    8.1419    2.2845    0.0000 C   0  0  0  0  0  0  0  0  0  0  0  0
  1  2  1  0  0  0  0
  2  3  1  0  0  0  0
  3  4  1  0  0  0  0
  4  5  1  0  0  0  0
  5  1  1  0  0  0  0
  2  6  1  6  0  0  0
  3 11  1  6  0  0  0
  1  7  1  1  0  0  0
  4  8  1  1  0  0  0
  7  9  1  0  0  0  0
  9 10  1  0  0  0  0
  6 12  1  0  0  0  0
 11 13  1  0  0  0  0
 13 14  2  0  0  0  0
 14 15  1  0  0  0  0
 15 16  2  0  0  0  0
 16 17  1  0  0  0  0
 17 18  2  0  0  0  0
 18 13  1  0  0  0  0
A    8
R3
A   10
R1
A   12
R2
M  END

>  <symbol>
ph2r

>  <m_abbr>
ph2r

>  <m_type>
rna

>  <m_subtype>
natural

>  <m_RgroupIdx>
9,11,7

>  <m_Rgroups>
H,H,OH

$$$$

MolEngine07221613482D

 15 15  0  0  0  0            999 V2000
    3.9168    4.1935    0.0000 C   0  0  0  0  0  0  0  0  0  0  0  0
    4.2872    2.7162    0.0000 C   0  0  0  0  0  0  0  0  0  0  0  0
    5.8256    2.7028    0.0000 C   0  0  0  0  0  0  0  0  0  0  0  0
    6.3774    4.1538    0.0000 C   0  0  0  0  0  0  0  0  0  0  0  0
    5.2104    5.1307    0.0000 O   0  0  0  0  0  0  0  0  0  0  0  0
    3.3407    1.5230    0.0000 O   0  0  0  0  0  0  0  0  0  0  0  0
    2.4856    4.7143    0.0000 C   0  0  0  0  0  0  0  0  0  0  0  0
    7.8526    4.5324    0.0000 R#  0  0  0  0  0  0  0  0  0  0  0  0
    1.3190    3.7354    0.0000 O   0  0  0  0  0  0  0  0  0  0  0  0
    0.0000    4.4969    0.0000 R#  0  0  0  0  0  0  0  0  0  0  0  0
    3.3407    0.0000    0.0000 R#  0  0  0  0  0  0  0  0  0  0  0  0
    6.6397    1.4164    0.0000 O   0  0  0  0  0  0  0  0  0  0  0  0
   10.4472    0.0974    0.0000 C   0  0  0  0  0  0  0  0  0  0  0  0
    8.9242    0.0974    0.0000 C   0  0  0  0  0  0  0  0  0  0  0  0
    8.1627    1.4164    0.0000 C   0  0  0  0  0  0  0  0  0  0  0  0
  1  2  1  0  0  0  0
  2  3  1  0  0  0  0
  3  4  1  0  0  0  0
  4  5  1  0  0  0  0
  5  1  1  0  0  0  0
  2  6  1  6  0  0  0
  3 12  1  6  0  0  0
  1  7  1  1  0  0  0
  4  8  1  1  0  0  0
  7  9  1  0  0  0  0
  9 10  1  0  0  0  0
  6 11  1  0  0  0  0
 14 15  1  0  0  0  0
 13 14  2  0  0  0  0
 12 15  1  0  0  0  0
A    8
R3
A   10
R1
A   11
R2
M  END

>  <symbol>
allyl2r

>  <m_abbr>
allyl2r

>  <m_type>
rna

>  <m_subtype>
natural

>  <m_RgroupIdx>
9,10,7

>  <m_Rgroups>
H,H,OH

$$$$

MolEngine07221613482D

 12 12  0  0  0  0            999 V2000
    4.4547    5.1139    0.0000 O   0  0  0  0  0  0  0  0  0  0  0  0
    3.2280    4.2113    0.0000 C   0  0  0  0  0  0  0  0  0  0  0  0
    5.6922    4.2260    0.0000 C   0  0  0  0  0  0  0  0  0  0  0  0
    3.7072    2.7657    0.0000 C   0  0  0  0  0  0  0  0  0  0  0  0
    5.2301    2.7748    0.0000 C   0  0  0  0  0  0  0  0  0  0  0  0
    2.8193    1.5283    0.0000 O   0  0  0  0  0  0  0  0  0  0  0  0
    1.7767    4.6734    0.0000 C   0  0  0  0  0  0  0  0  0  0  0  0
    1.4513    6.1612    0.0000 O   0  0  0  0  0  0  0  0  0  0  0  0
    0.0000    6.6232    0.0000 R#  0  0  0  0  0  0  0  0  0  0  0  0
    7.1378    4.7052    0.0000 R#  0  0  0  0  0  0  0  0  0  0  0  0
    6.1326    1.5480    0.0000 C   0  0  0  0  0  0  0  0  0  0  0  0
    2.8193    0.0000    0.0000 R#  0  0  0  0  0  0  0  0  0  0  0  0
  1  2  1  0  0  0  0
  1  3  1  0  0  0  0
  2  4  1  0  0  0  0
  2  7  1  1  0  0  0
  3  5  1  0  0  0  0
  4  5  1  0  0  0  0
  4  6  1  6  0  0  0
  7  8  1  0  0  0  0
  8  9  1  0  0  0  0
  3 10  1  1  0  0  0
  5 11  1  6  0  0  0
  6 12  1  0  0  0  0
A    9
R1
A   10
R3
A   12
R2
M  END

>  <symbol>
Am2d

>  <m_abbr>
Am2d

>  <m_type>
rna

>  <m_subtype>
natural

>  <m_RgroupIdx>
8,11,9

>  <m_Rgroups>
H,H,OH

$$$$

MolEngine07221613482D

 11 11  0  0  0  0            999 V2000
    4.0295    4.1941    0.0000 C   0  0  0  0  0  0  0  0  0  0  0  0
    4.4725    2.7370    0.0000 C   0  0  0  0  0  0  0  0  0  0  0  0
    5.9952    2.7080    0.0000 C   0  0  0  0  0  0  0  0  0  0  0  0
    6.4933    4.1473    0.0000 C   0  0  0  0  0  0  0  0  0  0  0  0
    5.2784    5.0658    0.0000 S   0  0  0  0  0  0  0  0  0  0  0  0
    2.5902    4.6923    0.0000 C   0  0  0  0  0  0  0  0  0  0  0  0
    3.5540    1.5221    0.0000 O   0  0  0  0  0  0  0  0  0  0  0  0
    1.4392    3.6949    0.0000 O   0  0  0  0  0  0  0  0  0  0  0  0
    0.0000    4.1930    0.0000 R#  0  0  0  0  0  0  0  0  0  0  0  0
    3.6047    0.0000    0.0000 R#  0  0  0  0  0  0  0  0  0  0  0  0
    7.9504    4.5902    0.0000 R#  0  0  0  0  0  0  0  0  0  0  0  0
  1  2  1  0  0  0  0
  2  3  1  0  0  0  0
  3  4  1  0  0  0  0
  4  5  1  0  0  0  0
  5  1  1  0  0  0  0
  1  6  1  1  0  0  0
  2  7  1  6  0  0  0
  6  8  1  0  0  0  0
  8  9  1  0  0  0  0
  7 10  1  0  0  0  0
  4 11  1  1  0  0  0
A    9
R1
A   10
R2
A   11
R3
M  END

>  <symbol>
s4d

>  <m_abbr>
s4d

>  <m_type>
rna

>  <m_subtype>
natural

>  <m_RgroupIdx>
8,9,10

>  <m_Rgroups>
H,H,OH

$$$$

MolEngine07221613482D

 11 11  0  0  0  0            999 V2000
    4.0294    4.1942    0.0000 C   0  0  0  0  0  0  0  0  0  0  0  0
    4.4724    2.7370    0.0000 C   0  0  0  0  0  0  0  0  0  0  0  0
    5.9952    2.7080    0.0000 C   0  0  0  0  0  0  0  0  0  0  0  0
    6.4881    4.1324    0.0000 C   0  0  0  0  0  0  0  0  0  0  0  0
    5.2784    5.0658    0.0000 C   0  0  0  0  0  0  0  0  0  0  0  0
    2.5902    4.6923    0.0000 C   0  0  0  0  0  0  0  0  0  0  0  0
    3.5539    1.5222    0.0000 O   0  0  0  0  0  0  0  0  0  0  0  0
    1.4392    3.6949    0.0000 O   0  0  0  0  0  0  0  0  0  0  0  0
    0.0000    4.1930    0.0000 R#  0  0  0  0  0  0  0  0  0  0  0  0
    3.6047    0.0000    0.0000 R#  0  0  0  0  0  0  0  0  0  0  0  0
    7.9504    4.5903    0.0000 R#  0  0  0  0  0  0  0  0  0  0  0  0
  1  2  1  0  0  0  0
  2  3  1  0  0  0  0
  3  4  1  0  0  0  0
  4  5  1  0  0  0  0
  5  1  1  0  0  0  0
  1  6  1  1  0  0  0
  2  7  1  6  0  0  0
  6  8  1  0  0  0  0
  8  9  1  0  0  0  0
  7 10  1  0  0  0  0
  4 11  1  1  0  0  0
A    9
R1
A   10
R2
A   11
R3
M  END

>  <symbol>
c4d

>  <m_abbr>
c4d

>  <m_type>
rna

>  <m_subtype>
natural

>  <m_RgroupIdx>
8,9,10

>  <m_Rgroups>
H,H,OH

$$$$

MolEngine07221613482D

 13 13  0  0  0  0            999 V2000
    3.9167    4.1934    0.0000 C   0  0  0  0  0  0  0  0  0  0  0  0
    4.2872    2.7161    0.0000 C   0  0  0  0  0  0  0  0  0  0  0  0
    5.8255    2.7028    0.0000 C   0  0  0  0  0  0  0  0  0  0  0  0
    6.3773    4.1537    0.0000 C   0  0  0  0  0  0  0  0  0  0  0  0
    5.2104    5.1307    0.0000 O   0  0  0  0  0  0  0  0  0  0  0  0
    3.3407    1.5230    0.0000 O   0  0  0  0  0  0  0  0  0  0  0  0
    2.4856    4.7143    0.0000 C   0  0  0  0  0  0  0  0  0  0  0  0
    7.8525    4.5323    0.0000 R#  0  0  0  0  0  0  0  0  0  0  0  0
    1.3189    3.7353    0.0000 O   0  0  0  0  0  0  0  0  0  0  0  0
    0.0000    4.4968    0.0000 R#  0  0  0  0  0  0  0  0  0  0  0  0
    3.3407    0.0000    0.0000 R#  0  0  0  0  0  0  0  0  0  0  0  0
    6.6397    1.4163    0.0000 C   0  0  0  0  0  0  0  0  0  0  0  0
    8.1626    1.4163    0.0000 C   0  0  0  0  0  0  0  0  0  0  0  0
  1  2  1  0  0  0  0
  2  3  1  0  0  0  0
  3  4  1  0  0  0  0
  4  5  1  0  0  0  0
  5  1  1  0  0  0  0
  2  6  1  6  0  0  0
  3 12  1  6  0  0  0
  1  7  1  1  0  0  0
  4  8  1  1  0  0  0
  7  9  1  0  0  0  0
  9 10  1  0  0  0  0
  6 11  1  0  0  0  0
 12 13  1  0  0  0  0
A    8
R3
A   10
R1
A   11
R2
M  END

>  <symbol>
Ae2d

>  <m_abbr>
Ae2d

>  <m_type>
rna

>  <m_subtype>
natural

>  <m_RgroupIdx>
9,10,7

>  <m_Rgroups>
H,H,OH

$$$$

MolEngine07221613482D

 20 20  0  0  0  0            999 V2000
    4.4547    7.6892    0.0000 O   0  0  0  0  0  0  0  0  0  0  0  0
    3.2279    6.7867    0.0000 C   0  0  0  0  0  0  0  0  0  0  0  0
    5.6921    6.8013    0.0000 C   0  0  0  0  0  0  0  0  0  0  0  0
    3.7071    5.3410    0.0000 C   0  0  0  0  0  0  0  0  0  0  0  0
    5.2300    5.3501    0.0000 C   0  0  0  0  0  0  0  0  0  0  0  0
    2.8192    4.1036    0.0000 O   0  0  0  0  0  0  0  0  0  0  0  0
    1.7767    7.2487    0.0000 C   0  0  0  0  0  0  0  0  0  0  0  0
    1.4512    8.7365    0.0000 O   0  0  0  0  0  0  0  0  0  0  0  0
    0.0000    9.1985    0.0000 R#  0  0  0  0  0  0  0  0  0  0  0  0
    7.1377    7.2805    0.0000 R#  0  0  0  0  0  0  0  0  0  0  0  0
    6.1325    4.1233    0.0000 O   0  0  0  0  0  0  0  0  0  0  0  0
    2.8192    2.5753    0.0000 R#  0  0  0  0  0  0  0  0  0  0  0  0
    7.6608    4.1233    0.0000 C   0  0  0  0  0  0  0  0  0  0  0  0
    8.4250    2.7998    0.0000 N   0  0  0  0  0  0  0  0  0  0  0  0
    8.4250    5.4469    0.0000 O   0  0  0  0  0  0  0  0  0  0  0  0
    9.9533    2.7998    0.0000 C   0  0  0  0  0  0  0  0  0  0  0  0
   10.7174    1.4762    0.0000 C   0  0  0  0  0  0  0  0  0  0  0  0
   12.2457    1.4762    0.0000 N   0  0  0  0  0  0  0  0  0  0  0  0
   12.6413    0.0000    0.0000 C   0  0  0  0  0  0  0  0  0  0  0  0
   13.1761    2.6887    0.0000 C   0  0  0  0  0  0  0  0  0  0  0  0
  1  2  1  0  0  0  0
  1  3  1  0  0  0  0
  2  4  1  0  0  0  0
  2  7  1  1  0  0  0
  3  5  1  0  0  0  0
  4  5  1  0  0  0  0
  4  6  1  6  0  0  0
  7  8  1  0  0  0  0
  8  9  1  0  0  0  0
  3 10  1  1  0  0  0
  5 11  1  6  0  0  0
  6 12  1  0  0  0  0
 11 13  1  0  0  0  0
 13 14  1  0  0  0  0
 13 15  2  0  0  0  0
 14 16  1  0  0  0  0
 16 17  1  0  0  0  0
 17 18  1  0  0  0  0
 18 19  1  0  0  0  0
 18 20  1  0  0  0  0
A    9
R1
A   10
R3
A   12
R2
M  END

>  <symbol>
m2nenc2r

>  <m_abbr>
m2nenc2r

>  <m_type>
rna

>  <m_subtype>
natural

>  <m_RgroupIdx>
8,11,9

>  <m_Rgroups>
H,H,OH

$$$$

MolEngine07221613482D

 18 19  0  0  0  0            999 V2000
    4.0295    6.8420    0.0000 C   0  0  0  0  0  0  0  0  0  0  0  0
    4.4724    5.3848    0.0000 C   0  0  0  0  0  0  0  0  0  0  0  0
    5.9952    5.3559    0.0000 C   0  0  0  0  0  0  0  0  0  0  0  0
    6.4933    6.7951    0.0000 C   0  0  0  0  0  0  0  0  0  0  0  0
    5.2784    7.7136    0.0000 O   0  0  0  0  0  0  0  0  0  0  0  0
    2.5902    7.3401    0.0000 C   0  0  0  0  0  0  0  0  0  0  0  0
    3.5540    4.1700    0.0000 O   0  0  0  0  0  0  0  0  0  0  0  0
    1.4392    6.3427    0.0000 O   0  0  0  0  0  0  0  0  0  0  0  0
    0.0000    6.8409    0.0000 R#  0  0  0  0  0  0  0  0  0  0  0  0
    3.6047    2.6478    0.0000 R#  0  0  0  0  0  0  0  0  0  0  0  0
    7.9504    7.2381    0.0000 R#  0  0  0  0  0  0  0  0  0  0  0  0
    6.8668    4.1069    0.0000 S   0  0  0  0  0  0  0  0  0  0  0  0
    7.5342    2.7380    0.0000 C   0  0  0  0  0  0  0  0  0  0  0  0
    6.6824    1.4755    0.0000 C   0  0  0  0  0  0  0  0  0  0  0  0
    7.3498    0.1065    0.0000 C   0  0  0  0  0  0  0  0  0  0  0  0
    8.8691    0.0000    0.0000 C   0  0  0  0  0  0  0  0  0  0  0  0
    9.7209    1.2625    0.0000 C   0  0  0  0  0  0  0  0  0  0  0  0
    9.0535    2.6315    0.0000 C   0  0  0  0  0  0  0  0  0  0  0  0
  1  2  1  0  0  0  0
  2  3  1  0  0  0  0
  3  4  1  0  0  0  0
  4  5  1  0  0  0  0
  5  1  1  0  0  0  0
  1  6  1  1  0  0  0
  2  7  1  6  0  0  0
  6  8  1  0  0  0  0
  8  9  1  0  0  0  0
  7 10  1  0  0  0  0
  4 11  1  1  0  0  0
  3 12  1  6  0  0  0
 12 13  1  0  0  0  0
 13 14  2  0  0  0  0
 14 15  1  0  0  0  0
 15 16  2  0  0  0  0
 16 17  1  0  0  0  0
 17 18  2  0  0  0  0
 18 13  1  0  0  0  0
A    9
R1
A   10
R2
A   11
R3
M  END

>  <symbol>
phs2r

>  <m_abbr>
phs2r

>  <m_type>
rna

>  <m_subtype>
natural

>  <m_RgroupIdx>
8,9,10

>  <m_Rgroups>
H,H,OH

$$$$

MolEngine07221613482D

 15 15  0  0  0  0            999 V2000
    4.0295    5.0195    0.0000 C   0  0  0  0  0  0  0  0  0  0  0  0
    4.4724    3.5624    0.0000 C   0  0  0  0  0  0  0  0  0  0  0  0
    5.9952    3.5334    0.0000 C   0  0  0  0  0  0  0  0  0  0  0  0
    6.4881    4.9577    0.0000 C   0  0  0  0  0  0  0  0  0  0  0  0
    5.2784    5.8911    0.0000 O   0  0  0  0  0  0  0  0  0  0  0  0
    2.5902    5.5176    0.0000 C   0  0  0  0  0  0  0  0  0  0  0  0
    3.5540    2.3475    0.0000 O   0  0  0  0  0  0  0  0  0  0  0  0
    1.4392    4.5203    0.0000 O   0  0  0  0  0  0  0  0  0  0  0  0
    0.0000    5.0184    0.0000 R#  0  0  0  0  0  0  0  0  0  0  0  0
    3.6047    0.8254    0.0000 R#  0  0  0  0  0  0  0  0  0  0  0  0
    6.8667    2.2845    0.0000 O   0  0  0  0  0  0  0  0  0  0  0  0
    7.9504    5.4156    0.0000 R#  0  0  0  0  0  0  0  0  0  0  0  0
    6.8667    0.7615    0.0000 C   0  0  0  0  0  0  0  0  0  0  0  0
    8.1857    0.0000    0.0000 C   0  0  0  0  0  0  0  0  0  0  0  0
    9.6294    0.7932    0.0000 F   0  0  0  0  0  0  0  0  0  0  0  0
  1  2  1  0  0  0  0
  2  3  1  0  0  0  0
  3  4  1  0  0  0  0
  4  5  1  0  0  0  0
  5  1  1  0  0  0  0
  1  6  1  1  0  0  0
  2  7  1  6  0  0  0
  6  8  1  0  0  0  0
  8  9  1  0  0  0  0
  7 10  1  0  0  0  0
  3 11  1  6  0  0  0
  4 12  1  1  0  0  0
 11 13  1  0  0  0  0
 13 14  1  0  0  0  0
 14 15  1  0  0  0  0
A    9
R1
A   10
R2
A   12
R3
M  END

>  <symbol>
fle2r

>  <m_abbr>
fle2r

>  <m_type>
rna

>  <m_subtype>
natural

>  <m_RgroupIdx>
8,9,11

>  <m_Rgroups>
H,H,OH

$$$$

MolEngine07221613482D

 17 17  0  0  0  0            999 V2000
    4.4548    6.2130    0.0000 O   0  0  0  0  0  0  0  0  0  0  0  0
    3.2280    5.3105    0.0000 C   0  0  0  0  0  0  0  0  0  0  0  0
    5.6922    5.3252    0.0000 C   0  0  0  0  0  0  0  0  0  0  0  0
    3.7072    3.8649    0.0000 C   0  0  0  0  0  0  0  0  0  0  0  0
    5.2301    3.8739    0.0000 C   0  0  0  0  0  0  0  0  0  0  0  0
    2.8193    2.6274    0.0000 O   0  0  0  0  0  0  0  0  0  0  0  0
    1.7768    5.7725    0.0000 C   0  0  0  0  0  0  0  0  0  0  0  0
    1.4513    7.2603    0.0000 O   0  0  0  0  0  0  0  0  0  0  0  0
    0.0000    7.7224    0.0000 R#  0  0  0  0  0  0  0  0  0  0  0  0
    7.1378    5.8044    0.0000 R#  0  0  0  0  0  0  0  0  0  0  0  0
    6.1326    2.6471    0.0000 O   0  0  0  0  0  0  0  0  0  0  0  0
    2.8193    1.0991    0.0000 R#  0  0  0  0  0  0  0  0  0  0  0  0
    7.6609    2.6471    0.0000 C   0  0  0  0  0  0  0  0  0  0  0  0
    8.4251    1.3236    0.0000 N   0  0  0  0  0  0  0  0  0  0  0  0
    8.4251    3.9707    0.0000 O   0  0  0  0  0  0  0  0  0  0  0  0
    9.9534    1.3236    0.0000 C   0  0  0  0  0  0  0  0  0  0  0  0
    7.6609    0.0000    0.0000 C   0  0  0  0  0  0  0  0  0  0  0  0
  1  2  1  0  0  0  0
  1  3  1  0  0  0  0
  2  4  1  0  0  0  0
  2  7  1  1  0  0  0
  3  5  1  0  0  0  0
  4  5  1  0  0  0  0
  4  6  1  6  0  0  0
  7  8  1  0  0  0  0
  8  9  1  0  0  0  0
  3 10  1  1  0  0  0
  5 11  1  6  0  0  0
  6 12  1  0  0  0  0
 11 13  1  0  0  0  0
 13 14  1  0  0  0  0
 13 15  2  0  0  0  0
 14 16  1  0  0  0  0
 14 17  1  0  0  0  0
A    9
R1
A   10
R3
A   12
R2
M  END

>  <symbol>
m2nc2r

>  <m_abbr>
m2nc2r

>  <m_type>
rna

>  <m_subtype>
natural

>  <m_RgroupIdx>
8,11,9

>  <m_Rgroups>
H,H,OH

$$$$

MolEngine07221613482D

 18 18  0  0  0  0            999 V2000
    3.9168    6.7248    0.0000 C   0  0  0  0  0  0  0  0  0  0  0  0
    4.2872    5.2475    0.0000 C   0  0  0  0  0  0  0  0  0  0  0  0
    5.8256    5.2341    0.0000 C   0  0  0  0  0  0  0  0  0  0  0  0
    6.3754    6.6800    0.0000 C   0  0  0  0  0  0  0  0  0  0  0  0
    5.2104    7.6620    0.0000 O   0  0  0  0  0  0  0  0  0  0  0  0
    3.3407    4.0543    0.0000 O   0  0  0  0  0  0  0  0  0  0  0  0
    2.4856    7.2456    0.0000 C   0  0  0  0  0  0  0  0  0  0  0  0
    7.8526    7.0637    0.0000 R#  0  0  0  0  0  0  0  0  0  0  0  0
    1.3190    6.2667    0.0000 O   0  0  0  0  0  0  0  0  0  0  0  0
    0.0000    7.0282    0.0000 R#  0  0  0  0  0  0  0  0  0  0  0  0
    3.3407    2.5313    0.0000 R#  0  0  0  0  0  0  0  0  0  0  0  0
    6.6397    3.9477    0.0000 O   0  0  0  0  0  0  0  0  0  0  0  0
    8.9242    2.6287    0.0000 C   0  0  0  0  0  0  0  0  0  0  0  0
    8.1627    3.9477    0.0000 C   0  0  0  0  0  0  0  0  0  0  0  0
   10.4472    2.6287    0.0000 O   0  0  0  0  0  0  0  0  0  0  0  0
   11.2061    1.3143    0.0000 N   0  0  0  0  0  0  0  0  0  0  0  0
   12.7238    1.3143    0.0000 C   0  0  0  0  0  0  0  0  0  0  0  0
   10.4472    0.0000    0.0000 C   0  0  0  0  0  0  0  0  0  0  0  0
  1  2  1  0  0  0  0
  2  3  1  0  0  0  0
  3  4  1  0  0  0  0
  4  5  1  0  0  0  0
  5  1  1  0  0  0  0
  2  6  1  6  0  0  0
  3 12  1  6  0  0  0
  1  7  1  1  0  0  0
  4  8  1  1  0  0  0
  7  9  1  0  0  0  0
  9 10  1  0  0  0  0
  6 11  1  0  0  0  0
 13 14  1  0  0  0  0
 15 13  1  0  0  0  0
 12 14  1  0  0  0  0
 16 18  1  0  0  0  0
 16 17  1  0  0  0  0
 15 16  1  0  0  0  0
A    8
R3
A   10
R1
A   11
R2
M  END

>  <symbol>
dmaoe

>  <m_abbr>
dmaoe

>  <m_type>
rna

>  <m_subtype>
natural

>  <m_RgroupIdx>
9,10,7

>  <m_Rgroups>
H,H,OH

$$$$

MolEngine07221613482D

 18 18  0  0  0  0            999 V2000
    4.0153    8.7452    0.0000 C   0  0  0  0  0  0  0  0  0  0  0  0
    4.4176    7.2976    0.0000 C   0  0  0  0  0  0  0  0  0  0  0  0
    5.9351    7.3230    0.0000 C   0  0  0  0  0  0  0  0  0  0  0  0
    6.4430    8.7678    0.0000 C   0  0  0  0  0  0  0  0  0  0  0  0
    5.2676    9.7020    0.0000 O   0  0  0  0  0  0  0  0  0  0  0  0
    3.5095    6.0816    0.0000 O   0  0  0  0  0  0  0  0  0  0  0  0
    2.5764    9.2279    0.0000 C   0  0  0  0  0  0  0  0  0  0  0  0
    7.9013    9.1881    0.0000 R#  0  0  0  0  0  0  0  0  0  0  0  0
    1.4389    8.2231    0.0000 O   0  0  0  0  0  0  0  0  0  0  0  0
    0.0000    8.7057    0.0000 R#  0  0  0  0  0  0  0  0  0  0  0  0
    6.8229    6.0920    0.0000 O   0  0  0  0  0  0  0  0  0  0  0  0
    3.5095    4.5586    0.0000 R#  0  0  0  0  0  0  0  0  0  0  0  0
    6.8229    4.5690    0.0000 C   0  0  0  0  0  0  0  0  0  0  0  0
    8.1418    3.8075    0.0000 C   0  0  0  0  0  0  0  0  0  0  0  0
    8.1418    2.2845    0.0000 N   0  0  0  0  0  0  0  0  0  0  0  0
    9.4608    1.5230    0.0000 C   0  0  0  0  0  0  0  0  0  0  0  0
    9.4608    0.0000    0.0000 N   0  0  0  0  0  0  0  0  0  0  0  0
   10.7798    2.2845    0.0000 N   0  0  0  0  0  0  0  0  0  0  0  0
  1  2  1  0  0  0  0
  2  3  1  0  0  0  0
  3  4  1  0  0  0  0
  4  5  1  0  0  0  0
  5  1  1  0  0  0  0
  2  6  1  6  0  0  0
  3 11  1  6  0  0  0
  1  7  1  1  0  0  0
  4  8  1  1  0  0  0
  7  9  1  0  0  0  0
  9 10  1  0  0  0  0
  6 12  1  0  0  0  0
 11 13  1  0  0  0  0
 13 14  1  0  0  0  0
 14 15  1  0  0  0  0
 15 16  1  0  0  0  0
 16 17  2  0  0  0  0
 16 18  1  0  0  0  0
A    8
R3
A   10
R1
A   12
R2
M  END

>  <symbol>
guane2r

>  <m_abbr>
guane2r

>  <m_type>
rna

>  <m_subtype>
natural

>  <m_RgroupIdx>
9,11,7

>  <m_Rgroups>
H,H,OH

$$$$

MolEngine07221613482D

 20 20  0  0  0  0            999 V2000
    4.4547    7.5365    0.0000 O   0  0  0  0  0  0  0  0  0  0  0  0
    3.2280    6.6339    0.0000 C   0  0  0  0  0  0  0  0  0  0  0  0
    5.6921    6.6486    0.0000 C   0  0  0  0  0  0  0  0  0  0  0  0
    3.7071    5.1883    0.0000 C   0  0  0  0  0  0  0  0  0  0  0  0
    5.2301    5.1974    0.0000 C   0  0  0  0  0  0  0  0  0  0  0  0
    2.8193    3.9509    0.0000 O   0  0  0  0  0  0  0  0  0  0  0  0
    1.7767    7.0960    0.0000 C   0  0  0  0  0  0  0  0  0  0  0  0
    1.4512    8.5838    0.0000 O   0  0  0  0  0  0  0  0  0  0  0  0
    0.0000    9.0458    0.0000 R#  0  0  0  0  0  0  0  0  0  0  0  0
    7.1378    7.1278    0.0000 R#  0  0  0  0  0  0  0  0  0  0  0  0
    6.1326    3.9706    0.0000 O   0  0  0  0  0  0  0  0  0  0  0  0
    2.8193    2.4226    0.0000 R#  0  0  0  0  0  0  0  0  0  0  0  0
    7.6609    3.9706    0.0000 C   0  0  0  0  0  0  0  0  0  0  0  0
    8.4250    2.6470    0.0000 C   0  0  0  0  0  0  0  0  0  0  0  0
    9.9533    2.6470    0.0000 O   0  0  0  0  0  0  0  0  0  0  0  0
   10.7175    1.3235    0.0000 N   0  0  0  0  0  0  0  0  0  0  0  0
    9.9533    0.0000    0.0000 C   0  0  0  0  0  0  0  0  0  0  0  0
   12.2458    1.3235    0.0000 C   0  0  0  0  0  0  0  0  0  0  0  0
   13.0099    0.0000    0.0000 C   0  0  0  0  0  0  0  0  0  0  0  0
   13.0099    2.6470    0.0000 C   0  0  0  0  0  0  0  0  0  0  0  0
  1  2  1  0  0  0  0
  1  3  1  0  0  0  0
  2  4  1  0  0  0  0
  2  7  1  1  0  0  0
  3  5  1  0  0  0  0
  4  5  1  0  0  0  0
  4  6  1  6  0  0  0
  7  8  1  0  0  0  0
  8  9  1  0  0  0  0
  3 10  1  1  0  0  0
  5 11  1  6  0  0  0
  6 12  1  0  0  0  0
 11 13  1  0  0  0  0
 13 14  1  0  0  0  0
 14 15  1  0  0  0  0
 15 16  1  0  0  0  0
 16 17  1  0  0  0  0
 16 18  1  0  0  0  0
 18 19  1  0  0  0  0
 18 20  1  0  0  0  0
A    9
R1
A   10
R3
A   12
R2
M  END

>  <symbol>
iprmnoe2r

>  <m_abbr>
iprmnoe2r

>  <m_type>
rna

>  <m_subtype>
natural

>  <m_RgroupIdx>
8,11,9

>  <m_Rgroups>
H,H,OH

$$$$

MolEngine07221613482D

 20 20  0  0  0  0            999 V2000
    4.0153    7.2169    0.0000 C   0  0  0  0  0  0  0  0  0  0  0  0
    4.4177    5.7693    0.0000 C   0  0  0  0  0  0  0  0  0  0  0  0
    5.9352    5.7947    0.0000 C   0  0  0  0  0  0  0  0  0  0  0  0
    6.4430    7.2395    0.0000 C   0  0  0  0  0  0  0  0  0  0  0  0
    5.2677    8.1737    0.0000 O   0  0  0  0  0  0  0  0  0  0  0  0
    3.5095    4.5533    0.0000 O   0  0  0  0  0  0  0  0  0  0  0  0
    2.5764    7.6996    0.0000 C   0  0  0  0  0  0  0  0  0  0  0  0
    7.9014    7.6599    0.0000 R#  0  0  0  0  0  0  0  0  0  0  0  0
    1.4390    6.6948    0.0000 O   0  0  0  0  0  0  0  0  0  0  0  0
    0.0000    7.1774    0.0000 R#  0  0  0  0  0  0  0  0  0  0  0  0
    6.8229    4.5637    0.0000 O   0  0  0  0  0  0  0  0  0  0  0  0
    3.5095    3.0303    0.0000 R#  0  0  0  0  0  0  0  0  0  0  0  0
    6.8229    3.0407    0.0000 C   0  0  0  0  0  0  0  0  0  0  0  0
    8.1419    2.2792    0.0000 C   0  0  0  0  0  0  0  0  0  0  0  0
    9.4609    3.0407    0.0000 O   0  0  0  0  0  0  0  0  0  0  0  0
   10.7798    2.2792    0.0000 N   0  0  0  0  0  0  0  0  0  0  0  0
   12.0942    3.0381    0.0000 C   0  0  0  0  0  0  0  0  0  0  0  0
   10.7798    0.7615    0.0000 C   0  0  0  0  0  0  0  0  0  0  0  0
   13.4131    2.2766    0.0000 C   0  0  0  0  0  0  0  0  0  0  0  0
   12.0988    0.0000    0.0000 C   0  0  0  0  0  0  0  0  0  0  0  0
  1  2  1  0  0  0  0
  2  3  1  0  0  0  0
  3  4  1  0  0  0  0
  4  5  1  0  0  0  0
  5  1  1  0  0  0  0
  2  6  1  6  0  0  0
  3 11  1  6  0  0  0
  1  7  1  1  0  0  0
  4  8  1  1  0  0  0
  7  9  1  0  0  0  0
  9 10  1  0  0  0  0
  6 12  1  0  0  0  0
 11 13  1  0  0  0  0
 13 14  1  0  0  0  0
 14 15  1  0  0  0  0
 15 16  1  0  0  0  0
 16 18  1  0  0  0  0
 16 17  1  0  0  0  0
 17 19  1  0  0  0  0
 18 20  1  0  0  0  0
A    8
R3
A   10
R1
A   12
R2
M  END

>  <symbol>
e2noe2r

>  <m_abbr>
e2noe2r

>  <m_type>
rna

>  <m_subtype>
natural

>  <m_RgroupIdx>
9,11,7

>  <m_Rgroups>
H,H,OH

$$$$

MolEngine07221613482D

 16 16  0  0  0  0            999 V2000
    3.9168    5.4150    0.0000 C   0  0  0  0  0  0  0  0  0  0  0  0
    4.2872    3.9377    0.0000 C   0  0  0  0  0  0  0  0  0  0  0  0
    5.8256    3.9243    0.0000 C   0  0  0  0  0  0  0  0  0  0  0  0
    6.3774    5.3753    0.0000 C   0  0  0  0  0  0  0  0  0  0  0  0
    5.2104    6.3522    0.0000 O   0  0  0  0  0  0  0  0  0  0  0  0
    3.3407    2.7445    0.0000 O   0  0  0  0  0  0  0  0  0  0  0  0
    2.4856    5.9358    0.0000 C   0  0  0  0  0  0  0  0  0  0  0  0
    7.8526    5.7539    0.0000 R#  0  0  0  0  0  0  0  0  0  0  0  0
    1.3190    4.9569    0.0000 O   0  0  0  0  0  0  0  0  0  0  0  0
    0.0000    5.7184    0.0000 R#  0  0  0  0  0  0  0  0  0  0  0  0
    3.3407    1.2215    0.0000 R#  0  0  0  0  0  0  0  0  0  0  0  0
    6.6397    2.6379    0.0000 O   0  0  0  0  0  0  0  0  0  0  0  0
   10.4472    1.3189    0.0000 C   0  0  0  0  0  0  0  0  0  0  0  0
    8.9242    1.3189    0.0000 C   0  0  0  0  0  0  0  0  0  0  0  0
    8.1627    2.6379    0.0000 C   0  0  0  0  0  0  0  0  0  0  0  0
   11.2087    0.0000    0.0000 C   0  0  0  0  0  0  0  0  0  0  0  0
  1  2  1  0  0  0  0
  2  3  1  0  0  0  0
  3  4  1  0  0  0  0
  4  5  1  0  0  0  0
  5  1  1  0  0  0  0
  2  6  1  6  0  0  0
  3 12  1  6  0  0  0
  1  7  1  1  0  0  0
  4  8  1  1  0  0  0
  7  9  1  0  0  0  0
  9 10  1  0  0  0  0
  6 11  1  0  0  0  0
 14 15  1  0  0  0  0
 13 14  1  0  0  0  0
 12 15  1  0  0  0  0
 13 16  1  0  0  0  0
A    8
R3
A   10
R1
A   11
R2
M  END

>  <symbol>
bu2r

>  <m_abbr>
bu2r

>  <m_type>
rna

>  <m_subtype>
natural

>  <m_RgroupIdx>
9,10,7

>  <m_Rgroups>
H,H,OH

$$$$

MolEngine07221613482D

 13 13  0  0  0  0            999 V2000
    4.0295    4.1942    0.0000 C   0  0  0  0  0  0  0  0  0  0  0  0
    4.4724    2.7370    0.0000 C   0  0  0  0  0  0  0  0  0  0  0  0
    5.9952    2.7080    0.0000 C   0  0  0  0  0  0  0  0  0  0  0  0
    6.4933    4.1473    0.0000 C   0  0  0  0  0  0  0  0  0  0  0  0
    5.2784    5.0657    0.0000 O   0  0  0  0  0  0  0  0  0  0  0  0
    2.5902    4.6923    0.0000 C   0  0  0  0  0  0  0  0  0  0  0  0
    3.5540    1.5221    0.0000 O   0  0  0  0  0  0  0  0  0  0  0  0
    1.4392    3.6949    0.0000 O   0  0  0  0  0  0  0  0  0  0  0  0
    0.0000    4.1930    0.0000 R#  0  0  0  0  0  0  0  0  0  0  0  0
    3.6047    0.0000    0.0000 R#  0  0  0  0  0  0  0  0  0  0  0  0
    7.9504    4.5903    0.0000 R#  0  0  0  0  0  0  0  0  0  0  0  0
    6.8668    1.4591    0.0000 S   0  0  0  0  0  0  0  0  0  0  0  0
    8.3898    1.4591    0.0000 C   0  0  0  0  0  0  0  0  0  0  0  0
  1  2  1  0  0  0  0
  2  3  1  0  0  0  0
  3  4  1  0  0  0  0
  4  5  1  0  0  0  0
  5  1  1  0  0  0  0
  1  6  1  1  0  0  0
  2  7  1  6  0  0  0
  6  8  1  0  0  0  0
  8  9  1  0  0  0  0
  7 10  1  0  0  0  0
  4 11  1  1  0  0  0
  3 12  1  6  0  0  0
 12 13  1  0  0  0  0
A    9
R1
A   10
R2
A   11
R3
M  END

>  <symbol>
ms2r

>  <m_abbr>
ms2r

>  <m_type>
rna

>  <m_subtype>
natural

>  <m_RgroupIdx>
8,9,10

>  <m_Rgroups>
H,H,OH

$$$$

MolEngine07221613482D

 33 34  0  0  0  0            999 V2000
    3.9168   14.6202    0.0000 C   0  0  0  0  0  0  0  0  0  0  0  0
    4.2872   13.1429    0.0000 C   0  0  0  0  0  0  0  0  0  0  0  0
    5.8255   13.1296    0.0000 C   0  0  0  0  0  0  0  0  0  0  0  0
    6.3754   14.5755    0.0000 C   0  0  0  0  0  0  0  0  0  0  0  0
    5.2104   15.5575    0.0000 O   0  0  0  0  0  0  0  0  0  0  0  0
    3.3407   11.9498    0.0000 O   0  0  0  0  0  0  0  0  0  0  0  0
    2.4856   15.1411    0.0000 C   0  0  0  0  0  0  0  0  0  0  0  0
    7.8525   14.9591    0.0000 R#  0  0  0  0  0  0  0  0  0  0  0  0
    1.3189   14.1621    0.0000 O   0  0  0  0  0  0  0  0  0  0  0  0
    0.0000   14.9236    0.0000 R#  0  0  0  0  0  0  0  0  0  0  0  0
    3.3407   10.4268    0.0000 R#  0  0  0  0  0  0  0  0  0  0  0  0
    6.6397   11.8431    0.0000 O   0  0  0  0  0  0  0  0  0  0  0  0
   10.4472   10.5242    0.0000 C   0  0  0  0  0  0  0  0  0  0  0  0
    8.9242   10.5242    0.0000 C   0  0  0  0  0  0  0  0  0  0  0  0
    8.1627   11.8431    0.0000 C   0  0  0  0  0  0  0  0  0  0  0  0
   11.2087    9.2052    0.0000 C   0  0  0  0  0  0  0  0  0  0  0  0
   12.7317    9.2052    0.0000 C   0  0  0  0  0  0  0  0  0  0  0  0
   13.4932    7.8863    0.0000 C   0  0  0  0  0  0  0  0  0  0  0  0
   21.8459    1.3144    0.0000 C   0  0  0  0  0  0  0  0  0  0  0  0
   22.6048    0.0000    0.0000 C   0  0  0  0  0  0  0  0  0  0  0  0
   22.6048    2.6288    0.0000 C   0  0  0  0  0  0  0  0  0  0  0  0
   20.3282    1.3144    0.0000 C   0  0  0  0  0  0  0  0  0  0  0  0
   19.5693    2.6288    0.0000 C   0  0  0  0  0  0  0  0  0  0  0  0
   20.3282    3.9431    0.0000 C   0  0  0  0  0  0  0  0  0  0  0  0
   19.5693    5.2575    0.0000 C   0  0  0  0  0  0  0  0  0  0  0  0
   18.0516    5.2575    0.0000 C   0  0  0  0  0  0  0  0  0  0  0  0
   17.2927    3.9431    0.0000 C   0  0  0  0  0  0  0  0  0  0  0  0
   18.0516    2.6288    0.0000 C   0  0  0  0  0  0  0  0  0  0  0  0
   17.2927    6.5719    0.0000 C   0  0  0  0  0  0  0  0  0  0  0  0
   18.0516    7.8863    0.0000 C   0  0  0  0  0  0  0  0  0  0  0  0
   15.7750    6.5719    0.0000 C   0  0  0  0  0  0  0  0  0  0  0  0
   15.0162    5.2575    0.0000 O   0  0  0  0  0  0  0  0  0  0  0  0
   15.0162    7.8863    0.0000 N   0  0  0  0  0  0  0  0  0  0  0  0
  1  2  1  0  0  0  0
  2  3  1  0  0  0  0
  3  4  1  0  0  0  0
  4  5  1  0  0  0  0
  5  1  1  0  0  0  0
  2  6  1  6  0  0  0
  3 12  1  6  0  0  0
  1  7  1  1  0  0  0
  4  8  1  1  0  0  0
  7  9  1  0  0  0  0
  9 10  1  0  0  0  0
  6 11  1  0  0  0  0
 14 15  1  0  0  0  0
 13 14  1  0  0  0  0
 12 15  1  0  0  0  0
 13 16  1  0  0  0  0
 16 17  1  0  0  0  0
 17 18  1  0  0  0  0
 18 33  1  0  0  0  0
 19 20  1  0  0  0  0
 19 21  1  0  0  0  0
 19 22  1  0  0  0  0
 22 23  1  0  0  0  0
 23 24  1  0  0  0  0
 24 25  2  0  0  0  0
 25 26  1  0  0  0  0
 26 27  2  0  0  0  0
 27 28  1  0  0  0  0
 23 28  2  0  0  0  0
 26 29  1  0  0  0  0
 29 30  1  0  0  0  0
 29 31  1  0  0  0  0
 31 32  2  0  0  0  0
 31 33  1  0  0  0  0
A    8
R3
A   10
R1
A   11
R2
M  END

>  <symbol>
ibuprofnC62r

>  <m_abbr>
ibuprofnC62r

>  <m_type>
rna

>  <m_subtype>
natural

>  <m_RgroupIdx>
9,10,7

>  <m_Rgroups>
H,H,OH

$$$$

MolEngine07221613482D

 18 18  0  0  0  0            999 V2000
    4.0293    7.7575    0.0000 C   0  0  0  0  0  0  0  0  0  0  0  0
    4.4331    6.3048    0.0000 C   0  0  0  0  0  0  0  0  0  0  0  0
    5.9559    6.3303    0.0000 C   0  0  0  0  0  0  0  0  0  0  0  0
    6.4655    7.7801    0.0000 C   0  0  0  0  0  0  0  0  0  0  0  0
    5.2860    8.7176    0.0000 O   0  0  0  0  0  0  0  0  0  0  0  0
    3.5218    5.0845    0.0000 O   0  0  0  0  0  0  0  0  0  0  0  0
    2.5854    8.2418    0.0000 C   0  0  0  0  0  0  0  0  0  0  0  0
    7.9289    8.2019    0.0000 R#  0  0  0  0  0  0  0  0  0  0  0  0
    1.4440    7.2335    0.0000 O   0  0  0  0  0  0  0  0  0  0  0  0
    0.0000    7.7179    0.0000 R#  0  0  0  0  0  0  0  0  0  0  0  0
    6.8467    5.0950    0.0000 O   0  0  0  0  0  0  0  0  0  0  0  0
    3.5218    3.5562    0.0000 R#  0  0  0  0  0  0  0  0  0  0  0  0
    6.2223    3.7059    0.0000 C   0  0  0  0  0  0  0  0  0  0  0  0
    7.1132    2.4706    0.0000 C   0  0  0  0  0  0  0  0  0  0  0  0
    8.6284    2.6244    0.0000 C   0  0  0  0  0  0  0  0  0  0  0  0
    9.5192    1.3891    0.0000 N   0  0  0  0  0  0  0  0  0  0  0  0
   11.0344    1.5430    0.0000 C   0  0  0  0  0  0  0  0  0  0  0  0
    8.8948    0.0000    0.0000 C   0  0  0  0  0  0  0  0  0  0  0  0
  1  2  1  0  0  0  0
  2  3  1  0  0  0  0
  3  4  1  0  0  0  0
  4  5  1  0  0  0  0
  5  1  1  0  0  0  0
  2  6  1  6  0  0  0
  3 11  1  6  0  0  0
  1  7  1  1  0  0  0
  4  8  1  1  0  0  0
  7  9  1  0  0  0  0
  9 10  1  0  0  0  0
  6 12  1  0  0  0  0
 11 13  1  0  0  0  0
 13 14  1  0  0  0  0
 14 15  1  0  0  0  0
 15 16  1  0  0  0  0
 16 18  1  0  0  0  0
 16 17  1  0  0  0  0
A    8
R3
A   10
R1
A   12
R2
M  END

>  <symbol>
m2npr2r

>  <m_abbr>
m2npr2r

>  <m_type>
rna

>  <m_subtype>
natural

>  <m_RgroupIdx>
9,11,7

>  <m_Rgroups>
H,H,OH

$$$$

MolEngine07221613482D

 14 14  0  0  0  0            999 V2000
    4.0293    4.9550    0.0000 C   0  0  0  0  0  0  0  0  0  0  0  0
    4.4331    3.5023    0.0000 C   0  0  0  0  0  0  0  0  0  0  0  0
    5.9559    3.5278    0.0000 C   0  0  0  0  0  0  0  0  0  0  0  0
    6.4654    4.9776    0.0000 C   0  0  0  0  0  0  0  0  0  0  0  0
    5.2860    5.9151    0.0000 O   0  0  0  0  0  0  0  0  0  0  0  0
    3.5217    2.2820    0.0000 O   0  0  0  0  0  0  0  0  0  0  0  0
    2.5854    5.4393    0.0000 C   0  0  0  0  0  0  0  0  0  0  0  0
    7.9289    5.3994    0.0000 R#  0  0  0  0  0  0  0  0  0  0  0  0
    1.4440    4.4310    0.0000 O   0  0  0  0  0  0  0  0  0  0  0  0
    0.0000    4.9153    0.0000 R#  0  0  0  0  0  0  0  0  0  0  0  0
    6.8467    2.2925    0.0000 O   0  0  0  0  0  0  0  0  0  0  0  0
    3.5217    0.7537    0.0000 R#  0  0  0  0  0  0  0  0  0  0  0  0
    6.8467    0.7642    0.0000 C   0  0  0  0  0  0  0  0  0  0  0  0
    8.1702    0.0000    0.0000 C   0  0  0  0  0  0  0  0  0  0  0  0
  1  2  1  0  0  0  0
  2  3  1  0  0  0  0
  3  4  1  0  0  0  0
  4  5  1  0  0  0  0
  5  1  1  0  0  0  0
  2  6  1  6  0  0  0
  3 11  1  6  0  0  0
  1  7  1  1  0  0  0
  4  8  1  1  0  0  0
  7  9  1  0  0  0  0
  9 10  1  0  0  0  0
  6 12  1  0  0  0  0
 11 13  1  0  0  0  0
 13 14  1  0  0  0  0
A    8
R3
A   10
R1
A   12
R2
M  END

>  <symbol>
e2r

>  <m_abbr>
e2r

>  <m_type>
rna

>  <m_subtype>
natural

>  <m_RgroupIdx>
9,11,7

>  <m_Rgroups>
H,H,OH

$$$$

MolEngine07221613482D

 21 21  0  0  0  0            999 V2000
    3.9168    8.0529    0.0000 C   0  0  0  0  0  0  0  0  0  0  0  0
    4.2872    6.5757    0.0000 C   0  0  0  0  0  0  0  0  0  0  0  0
    5.8255    6.5623    0.0000 C   0  0  0  0  0  0  0  0  0  0  0  0
    6.3773    8.0133    0.0000 C   0  0  0  0  0  0  0  0  0  0  0  0
    5.2104    8.9902    0.0000 O   0  0  0  0  0  0  0  0  0  0  0  0
    3.3407    5.3825    0.0000 O   0  0  0  0  0  0  0  0  0  0  0  0
    2.4856    8.5738    0.0000 C   0  0  0  0  0  0  0  0  0  0  0  0
    7.8525    8.3918    0.0000 R#  0  0  0  0  0  0  0  0  0  0  0  0
    1.3189    7.5949    0.0000 O   0  0  0  0  0  0  0  0  0  0  0  0
    0.0000    8.3564    0.0000 R#  0  0  0  0  0  0  0  0  0  0  0  0
    3.3407    3.8595    0.0000 R#  0  0  0  0  0  0  0  0  0  0  0  0
    6.6397    5.2759    0.0000 O   0  0  0  0  0  0  0  0  0  0  0  0
   10.4472    3.9569    0.0000 C   0  0  0  0  0  0  0  0  0  0  0  0
    8.9242    3.9569    0.0000 C   0  0  0  0  0  0  0  0  0  0  0  0
    8.1627    5.2759    0.0000 C   0  0  0  0  0  0  0  0  0  0  0  0
   11.2087    2.6380    0.0000 C   0  0  0  0  0  0  0  0  0  0  0  0
   12.7317    2.6380    0.0000 C   0  0  0  0  0  0  0  0  0  0  0  0
   13.4932    1.3190    0.0000 C   0  0  0  0  0  0  0  0  0  0  0  0
   15.0162    1.3190    0.0000 C   0  0  0  0  0  0  0  0  0  0  0  0
   15.7777    0.0000    0.0000 C   0  0  0  0  0  0  0  0  0  0  0  0
   17.3007    0.0000    0.0000 C   0  0  0  0  0  0  0  0  0  0  0  0
  1  2  1  0  0  0  0
  2  3  1  0  0  0  0
  3  4  1  0  0  0  0
  4  5  1  0  0  0  0
  5  1  1  0  0  0  0
  2  6  1  6  0  0  0
  3 12  1  6  0  0  0
  1  7  1  1  0  0  0
  4  8  1  1  0  0  0
  7  9  1  0  0  0  0
  9 10  1  0  0  0  0
  6 11  1  0  0  0  0
 14 15  1  0  0  0  0
 13 14  1  0  0  0  0
 12 15  1  0  0  0  0
 13 16  1  0  0  0  0
 16 17  1  0  0  0  0
 17 18  1  0  0  0  0
 18 19  1  0  0  0  0
 19 20  1  0  0  0  0
 20 21  1  0  0  0  0
A    8
R3
A   10
R1
A   11
R2
M  END

>  <symbol>
C92r

>  <m_abbr>
C92r

>  <m_type>
rna

>  <m_subtype>
natural

>  <m_RgroupIdx>
9,10,7

>  <m_Rgroups>
H,H,OH

$$$$

MolEngine07221613482D

 18 18  0  0  0  0            999 V2000
    4.0294    7.3041    0.0000 C   0  0  0  0  0  0  0  0  0  0  0  0
    4.4724    5.8470    0.0000 C   0  0  0  0  0  0  0  0  0  0  0  0
    5.9951    5.8180    0.0000 C   0  0  0  0  0  0  0  0  0  0  0  0
    6.4898    7.2472    0.0000 C   0  0  0  0  0  0  0  0  0  0  0  0
    5.2784    8.1757    0.0000 O   0  0  0  0  0  0  0  0  0  0  0  0
    2.5902    7.8022    0.0000 C   0  0  0  0  0  0  0  0  0  0  0  0
    3.5539    4.6321    0.0000 O   0  0  0  0  0  0  0  0  0  0  0  0
    1.4392    6.8049    0.0000 O   0  0  0  0  0  0  0  0  0  0  0  0
    0.0000    7.3030    0.0000 R#  0  0  0  0  0  0  0  0  0  0  0  0
    3.6047    3.1099    0.0000 R#  0  0  0  0  0  0  0  0  0  0  0  0
    6.8667    4.5690    0.0000 O   0  0  0  0  0  0  0  0  0  0  0  0
    7.9504    7.7002    0.0000 R#  0  0  0  0  0  0  0  0  0  0  0  0
    6.8667    3.0460    0.0000 C   0  0  0  0  0  0  0  0  0  0  0  0
    8.1857    2.2845    0.0000 C   0  0  0  0  0  0  0  0  0  0  0  0
    8.1857    0.7615    0.0000 N   0  0  0  0  0  0  0  0  0  0  0  0
    9.5046    0.0000    0.0000 C   0  0  0  0  0  0  0  0  0  0  0  0
    9.5046    3.0460    0.0000 O   0  0  0  0  0  0  0  0  0  0  0  0
    6.8667    0.0000    0.0000 C   0  0  0  0  0  0  0  0  0  0  0  0
  1  2  1  0  0  0  0
  2  3  1  0  0  0  0
  3  4  1  0  0  0  0
  4  5  1  0  0  0  0
  5  1  1  0  0  0  0
  1  6  1  1  0  0  0
  2  7  1  6  0  0  0
  6  8  1  0  0  0  0
  8  9  1  0  0  0  0
  7 10  1  0  0  0  0
  3 11  1  6  0  0  0
  4 12  1  1  0  0  0
 11 13  1  0  0  0  0
 13 14  1  0  0  0  0
 14 15  1  0  0  0  0
 15 16  1  0  0  0  0
 14 17  2  0  0  0  0
 15 18  1  0  0  0  0
A    9
R1
A   10
R2
A   12
R3
M  END

>  <symbol>
dmac

>  <m_abbr>
dmac

>  <m_type>
rna

>  <m_subtype>
natural

>  <m_RgroupIdx>
8,9,11

>  <m_Rgroups>
H,H,OH

$$$$

MolEngine07221613482D

 18 18  0  0  0  0            999 V2000
    4.4547    7.5365    0.0000 O   0  0  0  0  0  0  0  0  0  0  0  0
    3.2279    6.6340    0.0000 C   0  0  0  0  0  0  0  0  0  0  0  0
    5.6921    6.6486    0.0000 C   0  0  0  0  0  0  0  0  0  0  0  0
    3.7071    5.1883    0.0000 C   0  0  0  0  0  0  0  0  0  0  0  0
    5.2301    5.1974    0.0000 C   0  0  0  0  0  0  0  0  0  0  0  0
    2.8192    3.9509    0.0000 O   0  0  0  0  0  0  0  0  0  0  0  0
    1.7767    7.0960    0.0000 C   0  0  0  0  0  0  0  0  0  0  0  0
    1.4512    8.5838    0.0000 O   0  0  0  0  0  0  0  0  0  0  0  0
    0.0000    9.0458    0.0000 R#  0  0  0  0  0  0  0  0  0  0  0  0
    7.1377    7.1278    0.0000 R#  0  0  0  0  0  0  0  0  0  0  0  0
    6.1326    3.9706    0.0000 O   0  0  0  0  0  0  0  0  0  0  0  0
    2.8192    2.4226    0.0000 R#  0  0  0  0  0  0  0  0  0  0  0  0
    7.6608    3.9706    0.0000 C   0  0  0  0  0  0  0  0  0  0  0  0
    8.4250    2.6471    0.0000 C   0  0  0  0  0  0  0  0  0  0  0  0
    9.9533    2.6471    0.0000 C   0  0  0  0  0  0  0  0  0  0  0  0
   10.7174    1.3235    0.0000 C   0  0  0  0  0  0  0  0  0  0  0  0
   12.2457    1.3235    0.0000 C   0  0  0  0  0  0  0  0  0  0  0  0
   13.0099    0.0000    0.0000 N   0  0  0  0  0  0  0  0  0  0  0  0
  1  2  1  0  0  0  0
  1  3  1  0  0  0  0
  2  4  1  0  0  0  0
  2  7  1  1  0  0  0
  3  5  1  0  0  0  0
  4  5  1  0  0  0  0
  4  6  1  6  0  0  0
  7  8  1  0  0  0  0
  8  9  1  0  0  0  0
  3 10  1  1  0  0  0
  5 11  1  6  0  0  0
  6 12  1  0  0  0  0
 11 13  1  0  0  0  0
 13 14  1  0  0  0  0
 14 15  1  0  0  0  0
 15 16  1  0  0  0  0
 16 17  1  0  0  0  0
 17 18  1  0  0  0  0
A    9
R1
A   10
R3
A   12
R2
M  END

>  <symbol>
nC52r

>  <m_abbr>
nC52r

>  <m_type>
rna

>  <m_subtype>
natural

>  <m_RgroupIdx>
8,11,9

>  <m_Rgroups>
H,H,OH

$$$$

MolEngine07221613482D

 19 20  0  0  0  0            999 V2000
    3.9168    6.7339    0.0000 C   0  0  0  0  0  0  0  0  0  0  0  0
    4.2872    5.2566    0.0000 C   0  0  0  0  0  0  0  0  0  0  0  0
    5.8255    5.2433    0.0000 C   0  0  0  0  0  0  0  0  0  0  0  0
    6.3773    6.6942    0.0000 C   0  0  0  0  0  0  0  0  0  0  0  0
    5.2104    7.6712    0.0000 O   0  0  0  0  0  0  0  0  0  0  0  0
    3.3407    4.0635    0.0000 O   0  0  0  0  0  0  0  0  0  0  0  0
    2.4856    7.2548    0.0000 C   0  0  0  0  0  0  0  0  0  0  0  0
    7.8525    7.0728    0.0000 R#  0  0  0  0  0  0  0  0  0  0  0  0
    1.3189    6.2758    0.0000 O   0  0  0  0  0  0  0  0  0  0  0  0
    0.0000    7.0373    0.0000 R#  0  0  0  0  0  0  0  0  0  0  0  0
    3.3407    2.5405    0.0000 R#  0  0  0  0  0  0  0  0  0  0  0  0
    6.6397    3.9568    0.0000 O   0  0  0  0  0  0  0  0  0  0  0  0
    8.9242    2.6379    0.0000 C   0  0  0  0  0  0  0  0  0  0  0  0
    8.1627    3.9568    0.0000 C   0  0  0  0  0  0  0  0  0  0  0  0
    8.1627    1.3189    0.0000 C   0  0  0  0  0  0  0  0  0  0  0  0
    8.9242    0.0000    0.0000 C   0  0  0  0  0  0  0  0  0  0  0  0
   10.4472    0.0000    0.0000 C   0  0  0  0  0  0  0  0  0  0  0  0
   11.2087    1.3189    0.0000 C   0  0  0  0  0  0  0  0  0  0  0  0
   10.4472    2.6379    0.0000 C   0  0  0  0  0  0  0  0  0  0  0  0
  1  2  1  0  0  0  0
  2  3  1  0  0  0  0
  3  4  1  0  0  0  0
  4  5  1  0  0  0  0
  5  1  1  0  0  0  0
  2  6  1  6  0  0  0
  3 12  1  6  0  0  0
  1  7  1  1  0  0  0
  4  8  1  1  0  0  0
  7  9  1  0  0  0  0
  9 10  1  0  0  0  0
  6 11  1  0  0  0  0
 13 14  1  0  0  0  0
 12 14  1  0  0  0  0
 13 15  2  0  0  0  0
 15 16  1  0  0  0  0
 16 17  2  0  0  0  0
 17 18  1  0  0  0  0
 18 19  2  0  0  0  0
 19 13  1  0  0  0  0
A    8
R3
A   10
R1
A   11
R2
M  END

>  <symbol>
bn2r

>  <m_abbr>
bn2r

>  <m_type>
rna

>  <m_subtype>
natural

>  <m_RgroupIdx>
9,10,7

>  <m_Rgroups>
H,H,OH

$$$$

MolEngine07221613482D

 20 20  0  0  0  0            999 V2000
    3.9168    8.0438    0.0000 C   0  0  0  0  0  0  0  0  0  0  0  0
    4.2872    6.5665    0.0000 C   0  0  0  0  0  0  0  0  0  0  0  0
    5.8256    6.5531    0.0000 C   0  0  0  0  0  0  0  0  0  0  0  0
    6.3735    7.9940    0.0000 C   0  0  0  0  0  0  0  0  0  0  0  0
    5.2104    8.9810    0.0000 O   0  0  0  0  0  0  0  0  0  0  0  0
    3.3407    5.3733    0.0000 O   0  0  0  0  0  0  0  0  0  0  0  0
    2.4856    8.5647    0.0000 C   0  0  0  0  0  0  0  0  0  0  0  0
    7.8526    8.3827    0.0000 R#  0  0  0  0  0  0  0  0  0  0  0  0
    1.3189    7.5857    0.0000 O   0  0  0  0  0  0  0  0  0  0  0  0
    0.0000    8.3472    0.0000 R#  0  0  0  0  0  0  0  0  0  0  0  0
    3.3407    3.8503    0.0000 R#  0  0  0  0  0  0  0  0  0  0  0  0
    6.6397    5.2667    0.0000 O   0  0  0  0  0  0  0  0  0  0  0  0
    8.9242    3.9478    0.0000 C   0  0  0  0  0  0  0  0  0  0  0  0
    8.1627    5.2667    0.0000 C   0  0  0  0  0  0  0  0  0  0  0  0
   10.4472    3.9478    0.0000 O   0  0  0  0  0  0  0  0  0  0  0  0
   11.2061    2.6334    0.0000 C   0  0  0  0  0  0  0  0  0  0  0  0
   12.7291    2.6334    0.0000 C   0  0  0  0  0  0  0  0  0  0  0  0
   13.4906    1.3144    0.0000 N   0  0  0  0  0  0  0  0  0  0  0  0
   15.0083    1.3144    0.0000 C   0  0  0  0  0  0  0  0  0  0  0  0
   12.7317    0.0000    0.0000 C   0  0  0  0  0  0  0  0  0  0  0  0
  1  2  1  0  0  0  0
  2  3  1  0  0  0  0
  3  4  1  0  0  0  0
  4  5  1  0  0  0  0
  5  1  1  0  0  0  0
  2  6  1  6  0  0  0
  3 12  1  6  0  0  0
  1  7  1  1  0  0  0
  4  8  1  1  0  0  0
  7  9  1  0  0  0  0
  9 10  1  0  0  0  0
  6 11  1  0  0  0  0
 13 14  1  0  0  0  0
 15 13  1  0  0  0  0
 12 14  1  0  0  0  0
 15 16  1  0  0  0  0
 16 17  1  0  0  0  0
 17 18  1  0  0  0  0
 18 20  1  0  0  0  0
 18 19  1  0  0  0  0
A    8
R3
A   10
R1
A   11
R2
M  END

>  <symbol>
dmaeoe

>  <m_abbr>
dmaeoe

>  <m_type>
rna

>  <m_subtype>
natural

>  <m_RgroupIdx>
9,10,7

>  <m_Rgroups>
H,H,OH

$$$$

MolEngine07221613482D

 11 11  0  0  0  0            999 V2000
    4.4547    5.1139    0.0000 O   0  0  0  0  0  0  0  0  0  0  0  0
    3.2280    4.2114    0.0000 C   0  0  0  0  0  0  0  0  0  0  0  0
    5.6922    4.2261    0.0000 C   0  0  0  0  0  0  0  0  0  0  0  0
    3.7071    2.7658    0.0000 C   0  0  0  0  0  0  0  0  0  0  0  0
    5.2301    2.7748    0.0000 C   0  0  0  0  0  0  0  0  0  0  0  0
    2.8193    1.5283    0.0000 O   0  0  0  0  0  0  0  0  0  0  0  0
    1.7767    4.6734    0.0000 C   0  0  0  0  0  0  0  0  0  0  0  0
    1.4512    6.1612    0.0000 O   0  0  0  0  0  0  0  0  0  0  0  0
    0.0000    6.6233    0.0000 R#  0  0  0  0  0  0  0  0  0  0  0  0
    7.1378    4.7053    0.0000 R#  0  0  0  0  0  0  0  0  0  0  0  0
    2.8193    0.0000    0.0000 R#  0  0  0  0  0  0  0  0  0  0  0  0
  1  2  1  0  0  0  0
  1  3  1  0  0  0  0
  2  4  1  0  0  0  0
  2  7  1  6  0  0  0
  3  5  1  0  0  0  0
  4  5  1  0  0  0  0
  4  6  1  1  0  0  0
  7  8  1  0  0  0  0
  8  9  1  0  0  0  0
  3 10  1  6  0  0  0
  6 11  1  0  0  0  0
A    9
R1
A   10
R3
A   11
R2
M  END

>  <symbol>
Ld

>  <m_abbr>
Ld

>  <m_type>
rna

>  <m_subtype>
natural

>  <m_RgroupIdx>
8,10,9

>  <m_Rgroups>
H,H,OH

$$$$

MolEngine07221613482D

 50 53  0  0  0  0            999 V2000
    3.9168   26.4457    0.0000 C   0  0  0  0  0  0  0  0  0  0  0  0
    4.2872   24.9684    0.0000 C   0  0  0  0  0  0  0  0  0  0  0  0
    5.8256   24.9551    0.0000 C   0  0  0  0  0  0  0  0  0  0  0  0
    6.3735   26.3960    0.0000 C   0  0  0  0  0  0  0  0  0  0  0  0
    5.2105   27.3830    0.0000 O   0  0  0  0  0  0  0  0  0  0  0  0
    3.3407   23.7753    0.0000 O   0  0  0  0  0  0  0  0  0  0  0  0
    2.4857   26.9666    0.0000 C   0  0  0  0  0  0  0  0  0  0  0  0
    7.8526   26.7846    0.0000 R#  0  0  0  0  0  0  0  0  0  0  0  0
    1.3190   25.9876    0.0000 O   0  0  0  0  0  0  0  0  0  0  0  0
    0.0000   26.7491    0.0000 R#  0  0  0  0  0  0  0  0  0  0  0  0
    3.3407   22.2523    0.0000 R#  0  0  0  0  0  0  0  0  0  0  0  0
    6.6397   23.6686    0.0000 O   0  0  0  0  0  0  0  0  0  0  0  0
   10.4472   22.3497    0.0000 C   0  0  0  0  0  0  0  0  0  0  0  0
    8.9242   22.3497    0.0000 C   0  0  0  0  0  0  0  0  0  0  0  0
    8.1627   23.6686    0.0000 C   0  0  0  0  0  0  0  0  0  0  0  0
   11.2087   21.0307    0.0000 C   0  0  0  0  0  0  0  0  0  0  0  0
   12.7317   21.0307    0.0000 C   0  0  0  0  0  0  0  0  0  0  0  0
   13.4932   19.7118    0.0000 C   0  0  0  0  0  0  0  0  0  0  0  0
   18.0516   17.0830    0.0000 C   0  0  0  0  0  0  0  0  0  0  0  0
   17.2928   18.3974    0.0000 C   0  0  0  0  0  0  0  0  0  0  0  0
   15.7751   18.3974    0.0000 C   0  0  0  0  0  0  0  0  0  0  0  0
   15.0162   17.0830    0.0000 O   0  0  0  0  0  0  0  0  0  0  0  0
   15.0162   19.7118    0.0000 N   0  0  0  0  0  0  0  0  0  0  0  0
   19.5746   17.0830    0.0000 C   0  0  0  0  0  0  0  0  0  0  0  0
   20.3335   18.3974    0.0000 C   0  0  0  0  0  0  0  0  0  0  0  0
   19.5746   19.7118    0.0000 O   0  0  0  0  0  0  0  0  0  0  0  0
   21.8512   18.3974    0.0000 O   0  0  0  0  0  0  0  0  0  0  0  0
   20.3335   15.7687    0.0000 N   0  0  0  0  0  0  0  0  0  0  0  0
   19.5746   14.4543    0.0000 C   0  0  0  0  0  0  0  0  0  0  0  0
   18.0569   14.4543    0.0000 O   0  0  0  0  0  0  0  0  0  0  0  0
   20.3335   13.1399    0.0000 C   0  0  0  0  0  0  0  0  0  0  0  0
   19.5720   11.8220    0.0000 C   0  0  0  0  0  0  0  0  0  0  0  0
   20.3344   10.5097    0.0000 C   0  0  0  0  0  0  0  0  0  0  0  0
   21.8480   10.5102    0.0000 C   0  0  0  0  0  0  0  0  0  0  0  0
   22.6041   11.8231    0.0000 C   0  0  0  0  0  0  0  0  0  0  0  0
   21.8471   13.1404    0.0000 C   0  0  0  0  0  0  0  0  0  0  0  0
   22.6068    9.1959    0.0000 N   0  0  0  0  0  0  0  0  0  0  0  0
   21.8480    7.8815    0.0000 C   0  0  0  0  0  0  0  0  0  0  0  0
   22.6068    6.5671    0.0000 C   0  0  0  0  0  0  0  0  0  0  0  0
   21.8432    5.2453    0.0000 N   0  0  0  0  0  0  0  0  0  0  0  0
   22.6076    3.9298    0.0000 C   0  0  0  0  0  0  0  0  0  0  0  0
   24.1253    3.9302    0.0000 C   0  0  0  0  0  0  0  0  0  0  0  0
   24.8836    5.2462    0.0000 N   0  0  0  0  0  0  0  0  0  0  0  0
   24.1246    6.5675    0.0000 C   0  0  0  0  0  0  0  0  0  0  0  0
   21.8490    2.6188    0.0000 C   0  0  0  0  0  0  0  0  0  0  0  0
   22.6083    1.3139    0.0000 N   0  0  0  0  0  0  0  0  0  0  0  0
   24.1261    1.3143    0.0000 C   0  0  0  0  0  0  0  0  0  0  0  0
   24.8788    2.6196    0.0000 N   0  0  0  0  0  0  0  0  0  0  0  0
   24.8849    0.0000    0.0000 N   0  0  0  0  0  0  0  0  0  0  0  0
   20.3313    2.6188    0.0000 O   0  0  0  0  0  0  0  0  0  0  0  0
  1  2  1  0  0  0  0
  2  3  1  0  0  0  0
  3  4  1  0  0  0  0
  4  5  1  0  0  0  0
  5  1  1  0  0  0  0
  2  6  1  6  0  0  0
  3 12  1  6  0  0  0
  1  7  1  1  0  0  0
  4  8  1  1  0  0  0
  7  9  1  0  0  0  0
  9 10  1  0  0  0  0
  6 11  1  0  0  0  0
 14 15  1  0  0  0  0
 13 14  1  0  0  0  0
 12 15  1  0  0  0  0
 13 16  1  0  0  0  0
 16 17  1  0  0  0  0
 17 18  1  0  0  0  0
 18 23  1  0  0  0  0
 19 20  1  0  0  0  0
 20 21  1  0  0  0  0
 21 22  2  0  0  0  0
 21 23  1  0  0  0  0
 19 24  1  0  0  0  0
 24 28  1  0  0  0  0
 24 25  1  1  0  0  0
 25 26  2  0  0  0  0
 25 27  1  0  0  0  0
 28 29  1  0  0  0  0
 29 30  2  0  0  0  0
 29 31  1  0  0  0  0
 31 32  2  0  0  0  0
 32 33  1  0  0  0  0
 33 34  2  0  0  0  0
 34 35  1  0  0  0  0
 35 36  2  0  0  0  0
 31 36  1  0  0  0  0
 34 37  1  0  0  0  0
 37 38  1  0  0  0  0
 38 39  1  0  0  0  0
 39 40  2  0  0  0  0
 40 41  1  0  0  0  0
 41 42  2  0  0  0  0
 42 43  1  0  0  0  0
 43 44  2  0  0  0  0
 39 44  1  0  0  0  0
 41 45  1  0  0  0  0
 45 46  1  0  0  0  0
 46 47  1  0  0  0  0
 47 48  2  0  0  0  0
 42 48  1  0  0  0  0
 47 49  1  0  0  0  0
 45 50  2  0  0  0  0
A    8
R3
A   10
R1
A   11
R2
M  END

>  <symbol>
folicgnC62r

>  <m_abbr>
folicgnC62r

>  <m_type>
rna

>  <m_subtype>
natural

>  <m_RgroupIdx>
9,10,7

>  <m_Rgroups>
H,H,OH

$$$$

MolEngine07221613482D

 16 16  0  0  0  0            999 V2000
    4.0293    7.2473    0.0000 C   0  0  0  0  0  0  0  0  0  0  0  0
    4.4330    5.7947    0.0000 C   0  0  0  0  0  0  0  0  0  0  0  0
    5.9558    5.8202    0.0000 C   0  0  0  0  0  0  0  0  0  0  0  0
    6.4654    7.2700    0.0000 C   0  0  0  0  0  0  0  0  0  0  0  0
    5.2860    8.2075    0.0000 O   0  0  0  0  0  0  0  0  0  0  0  0
    3.5217    4.5744    0.0000 O   0  0  0  0  0  0  0  0  0  0  0  0
    2.5853    7.7317    0.0000 C   0  0  0  0  0  0  0  0  0  0  0  0
    7.9288    7.6918    0.0000 R#  0  0  0  0  0  0  0  0  0  0  0  0
    1.4439    6.7234    0.0000 O   0  0  0  0  0  0  0  0  0  0  0  0
    0.0000    7.2077    0.0000 R#  0  0  0  0  0  0  0  0  0  0  0  0
    6.8466    4.5849    0.0000 O   0  0  0  0  0  0  0  0  0  0  0  0
    3.5217    3.0461    0.0000 R#  0  0  0  0  0  0  0  0  0  0  0  0
    6.8466    3.0566    0.0000 C   0  0  0  0  0  0  0  0  0  0  0  0
    8.1702    2.2924    0.0000 C   0  0  0  0  0  0  0  0  0  0  0  0
    8.1702    0.7641    0.0000 S   0  0  0  0  0  0  0  0  0  0  0  0
    9.4938    0.0000    0.0000 C   0  0  0  0  0  0  0  0  0  0  0  0
  1  2  1  0  0  0  0
  2  3  1  0  0  0  0
  3  4  1  0  0  0  0
  4  5  1  0  0  0  0
  5  1  1  0  0  0  0
  2  6  1  6  0  0  0
  3 11  1  6  0  0  0
  1  7  1  1  0  0  0
  4  8  1  1  0  0  0
  7  9  1  0  0  0  0
  9 10  1  0  0  0  0
  6 12  1  0  0  0  0
 11 13  1  0  0  0  0
 13 14  1  0  0  0  0
 14 15  1  0  0  0  0
 15 16  1  0  0  0  0
A    8
R3
A   10
R1
A   12
R2
M  END

>  <symbol>
mse2r

>  <m_abbr>
mse2r

>  <m_type>
rna

>  <m_subtype>
natural

>  <m_RgroupIdx>
9,11,7

>  <m_Rgroups>
H,H,OH

$$$$

MolEngine07221613482D

 21 21  0  0  0  0            999 V2000
    4.0294   11.1036    0.0000 C   0  0  0  0  0  0  0  0  0  0  0  0
    4.4724    9.6465    0.0000 C   0  0  0  0  0  0  0  0  0  0  0  0
    5.9951    9.6175    0.0000 C   0  0  0  0  0  0  0  0  0  0  0  0
    6.4898   11.0468    0.0000 C   0  0  0  0  0  0  0  0  0  0  0  0
    5.2784   11.9752    0.0000 O   0  0  0  0  0  0  0  0  0  0  0  0
    2.5902   11.6017    0.0000 C   0  0  0  0  0  0  0  0  0  0  0  0
    3.5539    8.4316    0.0000 O   0  0  0  0  0  0  0  0  0  0  0  0
    1.4392   10.6044    0.0000 O   0  0  0  0  0  0  0  0  0  0  0  0
    0.0000   11.1025    0.0000 R#  0  0  0  0  0  0  0  0  0  0  0  0
    3.6047    6.9094    0.0000 R#  0  0  0  0  0  0  0  0  0  0  0  0
    6.8667    8.3685    0.0000 O   0  0  0  0  0  0  0  0  0  0  0  0
    7.9504   11.4997    0.0000 R#  0  0  0  0  0  0  0  0  0  0  0  0
    6.8667    6.8455    0.0000 C   0  0  0  0  0  0  0  0  0  0  0  0
    8.1857    6.0840    0.0000 C   0  0  0  0  0  0  0  0  0  0  0  0
    8.1857    4.5610    0.0000 N   0  0  0  0  0  0  0  0  0  0  0  0
    9.5046    3.7995    0.0000 C   0  0  0  0  0  0  0  0  0  0  0  0
    9.5046    6.8455    0.0000 O   0  0  0  0  0  0  0  0  0  0  0  0
    9.5046    2.2765    0.0000 C   0  0  0  0  0  0  0  0  0  0  0  0
   10.8190    1.5177    0.0000 N   0  0  0  0  0  0  0  0  0  0  0  0
   12.1334    2.2765    0.0000 C   0  0  0  0  0  0  0  0  0  0  0  0
   10.8190    0.0000    0.0000 C   0  0  0  0  0  0  0  0  0  0  0  0
  1  2  1  0  0  0  0
  2  3  1  0  0  0  0
  3  4  1  0  0  0  0
  4  5  1  0  0  0  0
  5  1  1  0  0  0  0
  1  6  1  1  0  0  0
  2  7  1  6  0  0  0
  6  8  1  0  0  0  0
  8  9  1  0  0  0  0
  7 10  1  0  0  0  0
  3 11  1  6  0  0  0
  4 12  1  1  0  0  0
 11 13  1  0  0  0  0
 13 14  1  0  0  0  0
 14 15  1  0  0  0  0
 15 16  1  0  0  0  0
 14 17  2  0  0  0  0
 16 18  1  0  0  0  0
 18 19  1  0  0  0  0
 19 21  1  0  0  0  0
 19 20  1  0  0  0  0
A    9
R1
A   10
R2
A   12
R3
M  END

>  <symbol>
dmaeac

>  <m_abbr>
dmaeac

>  <m_type>
rna

>  <m_subtype>
natural

>  <m_RgroupIdx>
8,9,11

>  <m_Rgroups>
H,H,OH

$$$$

MolEngine07221613482D

 20 20  0  0  0  0            999 V2000
    3.9168    6.7339    0.0000 C   0  0  0  0  0  0  0  0  0  0  0  0
    4.2872    5.2566    0.0000 C   0  0  0  0  0  0  0  0  0  0  0  0
    5.8256    5.2433    0.0000 C   0  0  0  0  0  0  0  0  0  0  0  0
    6.3774    6.6942    0.0000 C   0  0  0  0  0  0  0  0  0  0  0  0
    5.2105    7.6711    0.0000 O   0  0  0  0  0  0  0  0  0  0  0  0
    3.3407    4.0634    0.0000 O   0  0  0  0  0  0  0  0  0  0  0  0
    2.4857    7.2548    0.0000 C   0  0  0  0  0  0  0  0  0  0  0  0
    7.8526    7.0728    0.0000 R#  0  0  0  0  0  0  0  0  0  0  0  0
    1.3190    6.2758    0.0000 O   0  0  0  0  0  0  0  0  0  0  0  0
    0.0000    7.0373    0.0000 R#  0  0  0  0  0  0  0  0  0  0  0  0
    3.3407    2.5405    0.0000 R#  0  0  0  0  0  0  0  0  0  0  0  0
    6.6397    3.9568    0.0000 O   0  0  0  0  0  0  0  0  0  0  0  0
   10.4472    2.6379    0.0000 N   0  0  0  0  0  0  0  0  0  0  0  0
    8.9242    2.6379    0.0000 C   0  0  0  0  0  0  0  0  0  0  0  0
    8.1627    3.9568    0.0000 C   0  0  0  0  0  0  0  0  0  0  0  0
   11.2087    1.3189    0.0000 C   0  0  0  0  0  0  0  0  0  0  0  0
    8.1627    1.3189    0.0000 O   0  0  0  0  0  0  0  0  0  0  0  0
   12.7317    1.3189    0.0000 C   0  0  0  0  0  0  0  0  0  0  0  0
   13.4932    0.0000    0.0000 S   0  0  0  0  0  0  0  0  0  0  0  0
   15.0162    0.0000    0.0000 C   0  0  0  0  0  0  0  0  0  0  0  0
  1  2  1  0  0  0  0
  2  3  1  0  0  0  0
  3  4  1  0  0  0  0
  4  5  1  0  0  0  0
  5  1  1  0  0  0  0
  2  6  1  6  0  0  0
  3 12  1  6  0  0  0
  1  7  1  1  0  0  0
  4  8  1  1  0  0  0
  7  9  1  0  0  0  0
  9 10  1  0  0  0  0
  6 11  1  0  0  0  0
 14 15  1  0  0  0  0
 13 14  1  0  0  0  0
 12 15  1  0  0  0  0
 13 16  1  0  0  0  0
 14 17  2  0  0  0  0
 16 18  1  0  0  0  0
 18 19  1  0  0  0  0
 19 20  1  0  0  0  0
A    8
R3
A   10
R1
A   11
R2
M  END

>  <symbol>
mseac

>  <m_abbr>
mseac

>  <m_type>
rna

>  <m_subtype>
natural

>  <m_RgroupIdx>
9,10,7

>  <m_Rgroups>
H,H,OH

$$$$

MolEngine07221613482D

 17 17  0  0  0  0            999 V2000
    3.9168    5.4150    0.0000 C   0  0  0  0  0  0  0  0  0  0  0  0
    4.2872    3.9378    0.0000 C   0  0  0  0  0  0  0  0  0  0  0  0
    5.8256    3.9244    0.0000 C   0  0  0  0  0  0  0  0  0  0  0  0
    6.3774    5.3754    0.0000 C   0  0  0  0  0  0  0  0  0  0  0  0
    5.2105    6.3523    0.0000 O   0  0  0  0  0  0  0  0  0  0  0  0
    3.3407    2.7446    0.0000 O   0  0  0  0  0  0  0  0  0  0  0  0
    2.4857    5.9359    0.0000 C   0  0  0  0  0  0  0  0  0  0  0  0
    7.8526    5.7539    0.0000 R#  0  0  0  0  0  0  0  0  0  0  0  0
    1.3190    4.9569    0.0000 O   0  0  0  0  0  0  0  0  0  0  0  0
    0.0000    5.7184    0.0000 R#  0  0  0  0  0  0  0  0  0  0  0  0
    3.3407    1.2216    0.0000 R#  0  0  0  0  0  0  0  0  0  0  0  0
    6.6397    2.6379    0.0000 O   0  0  0  0  0  0  0  0  0  0  0  0
   10.4472    1.3190    0.0000 N   0  0  0  0  0  0  0  0  0  0  0  0
    8.9242    1.3190    0.0000 C   0  0  0  0  0  0  0  0  0  0  0  0
    8.1627    2.6379    0.0000 C   0  0  0  0  0  0  0  0  0  0  0  0
   11.2087    0.0000    0.0000 C   0  0  0  0  0  0  0  0  0  0  0  0
    8.1627    0.0000    0.0000 O   0  0  0  0  0  0  0  0  0  0  0  0
  1  2  1  0  0  0  0
  2  3  1  0  0  0  0
  3  4  1  0  0  0  0
  4  5  1  0  0  0  0
  5  1  1  0  0  0  0
  2  6  1  6  0  0  0
  3 12  1  6  0  0  0
  1  7  1  1  0  0  0
  4  8  1  1  0  0  0
  7  9  1  0  0  0  0
  9 10  1  0  0  0  0
  6 11  1  0  0  0  0
 14 15  1  0  0  0  0
 13 14  1  0  0  0  0
 12 15  1  0  0  0  0
 13 16  1  0  0  0  0
 14 17  2  0  0  0  0
A    8
R3
A   10
R1
A   11
R2
M  END

>  <symbol>
nma

>  <m_abbr>
nma

>  <m_type>
rna

>  <m_subtype>
natural

>  <m_RgroupIdx>
9,10,7

>  <m_Rgroups>
H,H,OH

$$$$

MolEngine07221613482D

 16 16  0  0  0  0            999 V2000
    4.0293    6.4832    0.0000 C   0  0  0  0  0  0  0  0  0  0  0  0
    4.4331    5.0306    0.0000 C   0  0  0  0  0  0  0  0  0  0  0  0
    5.9559    5.0560    0.0000 C   0  0  0  0  0  0  0  0  0  0  0  0
    6.4654    6.5059    0.0000 C   0  0  0  0  0  0  0  0  0  0  0  0
    5.2860    7.4433    0.0000 O   0  0  0  0  0  0  0  0  0  0  0  0
    3.5218    3.8103    0.0000 O   0  0  0  0  0  0  0  0  0  0  0  0
    2.5854    6.9676    0.0000 C   0  0  0  0  0  0  0  0  0  0  0  0
    7.9289    6.9277    0.0000 R#  0  0  0  0  0  0  0  0  0  0  0  0
    1.4440    5.9593    0.0000 O   0  0  0  0  0  0  0  0  0  0  0  0
    0.0000    6.4436    0.0000 R#  0  0  0  0  0  0  0  0  0  0  0  0
    6.8467    3.8207    0.0000 O   0  0  0  0  0  0  0  0  0  0  0  0
    3.5218    2.2820    0.0000 R#  0  0  0  0  0  0  0  0  0  0  0  0
    6.8467    2.2925    0.0000 C   0  0  0  0  0  0  0  0  0  0  0  0
    8.1702    1.5283    0.0000 C   0  0  0  0  0  0  0  0  0  0  0  0
    8.1702    0.0000    0.0000 O   0  0  0  0  0  0  0  0  0  0  0  0
    9.4938    2.2925    0.0000 N   0  0  0  0  0  0  0  0  0  0  0  0
  1  2  1  0  0  0  0
  2  3  1  0  0  0  0
  3  4  1  0  0  0  0
  4  5  1  0  0  0  0
  5  1  1  0  0  0  0
  2  6  1  6  0  0  0
  3 11  1  6  0  0  0
  1  7  1  1  0  0  0
  4  8  1  1  0  0  0
  7  9  1  0  0  0  0
  9 10  1  0  0  0  0
  6 12  1  0  0  0  0
 11 13  1  0  0  0  0
 13 14  1  0  0  0  0
 14 15  2  0  0  0  0
 14 16  1  0  0  0  0
A    8
R3
A   10
R1
A   12
R2
M  END

>  <symbol>
nac2r

>  <m_abbr>
nac2r

>  <m_type>
rna

>  <m_subtype>
natural

>  <m_RgroupIdx>
9,11,7

>  <m_Rgroups>
H,H,OH

$$$$

MolEngine07221613482D

 14 14  0  0  0  0            999 V2000
    2.5902    5.7811    0.0000 C   0  0  0  0  0  0  0  0  0  0  0  0
    3.0332    4.3239    0.0000 C   0  0  0  0  0  0  0  0  0  0  0  0
    4.5559    4.2949    0.0000 C   0  0  0  0  0  0  0  0  0  0  0  0
    5.0540    5.7342    0.0000 C   0  0  0  0  0  0  0  0  0  0  0  0
    3.8391    6.6527    0.0000 O   0  0  0  0  0  0  0  0  0  0  0  0
    1.1510    6.2792    0.0000 C   0  0  0  0  0  0  0  0  0  0  0  0
    2.1147    3.1090    0.0000 O   0  0  0  0  0  0  0  0  0  0  0  0
    2.1655    1.5869    0.0000 R#  0  0  0  0  0  0  0  0  0  0  0  0
    5.4275    3.0460    0.0000 O   0  0  0  0  0  0  0  0  0  0  0  0
    6.5112    6.1772    0.0000 R#  0  0  0  0  0  0  0  0  0  0  0  0
    5.4275    1.5230    0.0000 C   0  0  0  0  0  0  0  0  0  0  0  0
    6.7464    0.7615    0.0000 C   0  0  0  0  0  0  0  0  0  0  0  0
    0.0000    5.2818    0.0000 R#  0  0  0  0  0  0  0  0  0  0  0  0
    8.0654    0.0000    0.0000 C   0  0  0  0  0  0  0  0  0  0  0  0
  1  2  1  0  0  0  0
  2  3  1  0  0  0  0
  3  4  1  0  0  0  0
  4  5  1  0  0  0  0
  5  1  1  0  0  0  0
  1  6  1  1  0  0  0
  2  7  1  6  0  0  0
  7  8  1  0  0  0  0
  3  9  1  6  0  0  0
  4 10  1  1  0  0  0
  9 11  1  0  0  0  0
 11 12  1  0  0  0  0
  6 13  1  0  0  0  0
 12 14  3  0  0  0  0
A    8
R2
A   10
R3
A   13
R1
M  END

>  <symbol>
prpargyl2r

>  <m_abbr>
prpargyl2r

>  <m_type>
rna

>  <m_subtype>
natural

>  <m_RgroupIdx>
12,7,9

>  <m_Rgroups>
H,H,OH

$$$$

MolEngine07221613482D

 17 17  0  0  0  0            999 V2000
    3.9168    5.4150    0.0000 C   0  0  0  0  0  0  0  0  0  0  0  0
    4.2872    3.9377    0.0000 C   0  0  0  0  0  0  0  0  0  0  0  0
    5.8255    3.9244    0.0000 C   0  0  0  0  0  0  0  0  0  0  0  0
    6.3773    5.3753    0.0000 C   0  0  0  0  0  0  0  0  0  0  0  0
    5.2104    6.3523    0.0000 O   0  0  0  0  0  0  0  0  0  0  0  0
    3.3407    2.7446    0.0000 O   0  0  0  0  0  0  0  0  0  0  0  0
    2.4856    5.9359    0.0000 C   0  0  0  0  0  0  0  0  0  0  0  0
    7.8525    5.7539    0.0000 R#  0  0  0  0  0  0  0  0  0  0  0  0
    1.3189    4.9569    0.0000 O   0  0  0  0  0  0  0  0  0  0  0  0
    0.0000    5.7184    0.0000 R#  0  0  0  0  0  0  0  0  0  0  0  0
    3.3407    1.2216    0.0000 R#  0  0  0  0  0  0  0  0  0  0  0  0
    6.6397    2.6379    0.0000 O   0  0  0  0  0  0  0  0  0  0  0  0
   10.4472    1.3190    0.0000 C   0  0  0  0  0  0  0  0  0  0  0  0
    8.9242    1.3190    0.0000 C   0  0  0  0  0  0  0  0  0  0  0  0
    8.1627    2.6379    0.0000 C   0  0  0  0  0  0  0  0  0  0  0  0
   11.2087    0.0000    0.0000 C   0  0  0  0  0  0  0  0  0  0  0  0
   12.7317    0.0000    0.0000 N   0  0  0  0  0  0  0  0  0  0  0  0
  1  2  1  0  0  0  0
  2  3  1  0  0  0  0
  3  4  1  0  0  0  0
  4  5  1  0  0  0  0
  5  1  1  0  0  0  0
  2  6  1  6  0  0  0
  3 12  1  6  0  0  0
  1  7  1  1  0  0  0
  4  8  1  1  0  0  0
  7  9  1  0  0  0  0
  9 10  1  0  0  0  0
  6 11  1  0  0  0  0
 14 15  1  0  0  0  0
 13 14  1  0  0  0  0
 12 15  1  0  0  0  0
 13 16  1  0  0  0  0
 16 17  1  0  0  0  0
A    8
R3
A   10
R1
A   11
R2
M  END

>  <symbol>
nbu2r

>  <m_abbr>
nbu2r

>  <m_type>
rna

>  <m_subtype>
natural

>  <m_RgroupIdx>
9,10,7

>  <m_Rgroups>
H,H,OH

$$$$

MolEngine07221613482D

 15 15  0  0  0  0            999 V2000
    4.4547    5.1139    0.0000 O   0  0  0  0  0  0  0  0  0  0  0  0
    3.2279    4.2114    0.0000 C   0  0  0  0  0  0  0  0  0  0  0  0
    5.6921    4.2260    0.0000 C   0  0  0  0  0  0  0  0  0  0  0  0
    3.7071    2.7657    0.0000 C   0  0  0  0  0  0  0  0  0  0  0  0
    5.2301    2.7748    0.0000 C   0  0  0  0  0  0  0  0  0  0  0  0
    2.8192    1.5283    0.0000 O   0  0  0  0  0  0  0  0  0  0  0  0
    1.7767    4.6734    0.0000 C   0  0  0  0  0  0  0  0  0  0  0  0
    1.4512    6.1612    0.0000 O   0  0  0  0  0  0  0  0  0  0  0  0
    0.0000    6.6232    0.0000 R#  0  0  0  0  0  0  0  0  0  0  0  0
    7.1378    4.7052    0.0000 R#  0  0  0  0  0  0  0  0  0  0  0  0
    6.1326    1.5480    0.0000 O   0  0  0  0  0  0  0  0  0  0  0  0
    2.8192    0.0000    0.0000 R#  0  0  0  0  0  0  0  0  0  0  0  0
    7.6609    1.5480    0.0000 C   0  0  0  0  0  0  0  0  0  0  0  0
    8.4250    0.2244    0.0000 C   0  0  0  0  0  0  0  0  0  0  0  0
    9.9533    0.2244    0.0000 N   0  0  0  0  0  0  0  0  0  0  0  0
  1  2  1  0  0  0  0
  1  3  1  0  0  0  0
  2  4  1  0  0  0  0
  2  7  1  1  0  0  0
  3  5  1  0  0  0  0
  4  5  1  0  0  0  0
  4  6  1  6  0  0  0
  7  8  1  0  0  0  0
  8  9  1  0  0  0  0
  3 10  1  1  0  0  0
  5 11  1  6  0  0  0
  6 12  1  0  0  0  0
 11 13  1  0  0  0  0
 13 14  1  0  0  0  0
 14 15  1  0  0  0  0
A    9
R1
A   10
R3
A   12
R2
M  END

>  <symbol>
ne2r

>  <m_abbr>
ne2r

>  <m_type>
rna

>  <m_subtype>
natural

>  <m_RgroupIdx>
8,11,9

>  <m_Rgroups>
H,H,OH

$$$$

MolEngine07221613482D

 22 23  0  0  0  0            999 V2000
    4.0295   11.8730    0.0000 C   0  0  0  0  0  0  0  0  0  0  0  0
    4.4725   10.4159    0.0000 C   0  0  0  0  0  0  0  0  0  0  0  0
    5.9952   10.3869    0.0000 C   0  0  0  0  0  0  0  0  0  0  0  0
    6.4881   11.8112    0.0000 C   0  0  0  0  0  0  0  0  0  0  0  0
    5.2784   12.7446    0.0000 O   0  0  0  0  0  0  0  0  0  0  0  0
    2.5902   12.3711    0.0000 C   0  0  0  0  0  0  0  0  0  0  0  0
    3.5540    9.2010    0.0000 O   0  0  0  0  0  0  0  0  0  0  0  0
    1.4392   11.3738    0.0000 O   0  0  0  0  0  0  0  0  0  0  0  0
    0.0000   11.8719    0.0000 R#  0  0  0  0  0  0  0  0  0  0  0  0
    3.6047    7.6788    0.0000 R#  0  0  0  0  0  0  0  0  0  0  0  0
    6.8668    9.1380    0.0000 O   0  0  0  0  0  0  0  0  0  0  0  0
    7.9505   12.2691    0.0000 R#  0  0  0  0  0  0  0  0  0  0  0  0
    6.8668    7.6150    0.0000 C   0  0  0  0  0  0  0  0  0  0  0  0
    8.1857    6.8535    0.0000 C   0  0  0  0  0  0  0  0  0  0  0  0
    8.1857    5.3305    0.0000 O   0  0  0  0  0  0  0  0  0  0  0  0
    9.5047    4.5690    0.0000 C   0  0  0  0  0  0  0  0  0  0  0  0
    9.5047    3.0460    0.0000 C   0  0  0  0  0  0  0  0  0  0  0  0
    8.1857    2.2845    0.0000 C   0  0  0  0  0  0  0  0  0  0  0  0
    8.1857    0.7615    0.0000 C   0  0  0  0  0  0  0  0  0  0  0  0
    9.5047    0.0000    0.0000 C   0  0  0  0  0  0  0  0  0  0  0  0
   10.8236    0.7615    0.0000 C   0  0  0  0  0  0  0  0  0  0  0  0
   10.8236    2.2845    0.0000 C   0  0  0  0  0  0  0  0  0  0  0  0
  1  2  1  0  0  0  0
  2  3  1  0  0  0  0
  3  4  1  0  0  0  0
  4  5  1  0  0  0  0
  5  1  1  0  0  0  0
  1  6  1  1  0  0  0
  2  7  1  6  0  0  0
  6  8  1  0  0  0  0
  8  9  1  0  0  0  0
  7 10  1  0  0  0  0
  3 11  1  6  0  0  0
  4 12  1  1  0  0  0
 11 13  1  0  0  0  0
 13 14  1  0  0  0  0
 14 15  1  0  0  0  0
 15 16  1  0  0  0  0
 16 17  1  0  0  0  0
 17 18  2  0  0  0  0
 18 19  1  0  0  0  0
 19 20  2  0  0  0  0
 20 21  1  0  0  0  0
 21 22  2  0  0  0  0
 22 17  1  0  0  0  0
A    9
R1
A   10
R2
A   12
R3
M  END

>  <symbol>
bnoe2r

>  <m_abbr>
bnoe2r

>  <m_type>
rna

>  <m_subtype>
natural

>  <m_RgroupIdx>
8,9,11

>  <m_Rgroups>
H,H,OH

$$$$

MolEngine07221613482D

 21 22  0  0  0  0            999 V2000
    4.0295   11.1707    0.0000 C   0  0  0  0  0  0  0  0  0  0  0  0
    4.4725    9.7136    0.0000 C   0  0  0  0  0  0  0  0  0  0  0  0
    5.9952    9.6846    0.0000 C   0  0  0  0  0  0  0  0  0  0  0  0
    6.4881   11.1089    0.0000 C   0  0  0  0  0  0  0  0  0  0  0  0
    5.2784   12.0423    0.0000 O   0  0  0  0  0  0  0  0  0  0  0  0
    2.5902   11.6688    0.0000 C   0  0  0  0  0  0  0  0  0  0  0  0
    3.5540    8.4987    0.0000 O   0  0  0  0  0  0  0  0  0  0  0  0
    1.4392   10.6715    0.0000 O   0  0  0  0  0  0  0  0  0  0  0  0
    0.0000   11.1696    0.0000 R#  0  0  0  0  0  0  0  0  0  0  0  0
    3.6047    6.9765    0.0000 R#  0  0  0  0  0  0  0  0  0  0  0  0
    6.8668    8.4357    0.0000 O   0  0  0  0  0  0  0  0  0  0  0  0
    7.9505   11.5668    0.0000 R#  0  0  0  0  0  0  0  0  0  0  0  0
    6.8668    6.9127    0.0000 C   0  0  0  0  0  0  0  0  0  0  0  0
    8.1857    6.1512    0.0000 C   0  0  0  0  0  0  0  0  0  0  0  0
    8.1857    4.6282    0.0000 C   0  0  0  0  0  0  0  0  0  0  0  0
    9.5047    3.8667    0.0000 C   0  0  0  0  0  0  0  0  0  0  0  0
    9.5047    2.3437    0.0000 N   0  0  0  0  0  0  0  0  0  0  0  0
    8.2726    1.4485    0.0000 C   0  0  0  0  0  0  0  0  0  0  0  0
    8.7432    0.0000    0.0000 N   0  0  0  0  0  0  0  0  0  0  0  0
   10.2662    0.0000    0.0000 C   0  0  0  0  0  0  0  0  0  0  0  0
   10.7368    1.4485    0.0000 C   0  0  0  0  0  0  0  0  0  0  0  0
  1  2  1  0  0  0  0
  2  3  1  0  0  0  0
  3  4  1  0  0  0  0
  4  5  1  0  0  0  0
  5  1  1  0  0  0  0
  1  6  1  1  0  0  0
  2  7  1  6  0  0  0
  6  8  1  0  0  0  0
  8  9  1  0  0  0  0
  7 10  1  0  0  0  0
  3 11  1  6  0  0  0
  4 12  1  1  0  0  0
 11 13  1  0  0  0  0
 13 14  1  0  0  0  0
 14 15  1  0  0  0  0
 15 16  1  0  0  0  0
 16 17  1  0  0  0  0
 17 18  1  0  0  0  0
 18 19  2  0  0  0  0
 19 20  1  0  0  0  0
 20 21  2  0  0  0  0
 21 17  1  0  0  0  0
A    9
R1
A   10
R2
A   12
R3
M  END

>  <symbol>
imbu2r

>  <m_abbr>
imbu2r

>  <m_type>
rna

>  <m_subtype>
natural

>  <m_RgroupIdx>
8,9,11

>  <m_Rgroups>
H,H,OH

$$$$

MolEngine07221613482D

 16 16  0  0  0  0            999 V2000
    4.4392    6.1915    0.0000 O   0  0  0  0  0  0  0  0  0  0  0  0
    3.2167    5.2921    0.0000 C   0  0  0  0  0  0  0  0  0  0  0  0
    5.6723    5.3067    0.0000 C   0  0  0  0  0  0  0  0  0  0  0  0
    3.6942    3.8514    0.0000 C   0  0  0  0  0  0  0  0  0  0  0  0
    5.2119    3.8605    0.0000 C   0  0  0  0  0  0  0  0  0  0  0  0
    2.8094    2.6183    0.0000 O   0  0  0  0  0  0  0  0  0  0  0  0
    1.7705    5.7525    0.0000 C   0  0  0  0  0  0  0  0  0  0  0  0
    1.4462    7.2351    0.0000 O   0  0  0  0  0  0  0  0  0  0  0  0
    0.0000    7.6956    0.0000 R#  0  0  0  0  0  0  0  0  0  0  0  0
    7.1130    5.7842    0.0000 R#  0  0  0  0  0  0  0  0  0  0  0  0
    6.1113    2.6380    0.0000 O   0  0  0  0  0  0  0  0  0  0  0  0
    2.8094    1.0953    0.0000 R#  0  0  0  0  0  0  0  0  0  0  0  0
    7.6343    2.6380    0.0000 C   0  0  0  0  0  0  0  0  0  0  0  0
    8.3958    1.3190    0.0000 C   0  0  0  0  0  0  0  0  0  0  0  0
    9.9188    1.3190    0.0000 N   0  0  0  0  0  0  0  0  0  0  0  0
   10.6803    0.0000    0.0000 C   0  0  0  0  0  0  0  0  0  0  0  0
  1  2  1  0  0  0  0
  1  3  1  0  0  0  0
  2  4  1  0  0  0  0
  2  7  1  1  0  0  0
  3  5  1  0  0  0  0
  4  5  1  0  0  0  0
  4  6  1  6  0  0  0
  7  8  1  0  0  0  0
  8  9  1  0  0  0  0
  3 10  1  1  0  0  0
  5 11  1  6  0  0  0
  6 12  1  0  0  0  0
 11 13  1  0  0  0  0
 13 14  1  0  0  0  0
 14 15  1  0  0  0  0
 15 16  1  0  0  0  0
A    9
R1
A   10
R3
A   12
R2
M  END

>  <symbol>
mne2r

>  <m_abbr>
mne2r

>  <m_type>
rna

>  <m_subtype>
natural

>  <m_RgroupIdx>
8,11,9

>  <m_Rgroups>
H,H,OH

$$$$

MolEngine07221613482D

 12 12  0  0  0  0            999 V2000
    4.0293    4.2012    0.0000 C   0  0  0  0  0  0  0  0  0  0  0  0
    4.4331    2.7485    0.0000 C   0  0  0  0  0  0  0  0  0  0  0  0
    5.9559    2.7740    0.0000 C   0  0  0  0  0  0  0  0  0  0  0  0
    6.4654    4.2239    0.0000 C   0  0  0  0  0  0  0  0  0  0  0  0
    5.2860    5.1613    0.0000 C   0  0  0  0  0  0  0  0  0  0  0  0
    3.5218    1.5283    0.0000 O   0  0  0  0  0  0  0  0  0  0  0  0
    2.5854    4.6856    0.0000 C   0  0  0  0  0  0  0  0  0  0  0  0
    7.9289    4.6457    0.0000 R#  0  0  0  0  0  0  0  0  0  0  0  0
    1.4440    3.6772    0.0000 O   0  0  0  0  0  0  0  0  0  0  0  0
    0.0000    4.1616    0.0000 R#  0  0  0  0  0  0  0  0  0  0  0  0
    3.5218    0.0000    0.0000 R#  0  0  0  0  0  0  0  0  0  0  0  0
    5.2860    6.6896    0.0000 O   0  0  0  0  0  0  0  0  0  0  0  0
  1  2  1  0  0  0  0
  2  3  1  0  0  0  0
  3  4  1  0  0  0  0
  4  5  1  0  0  0  0
  5  1  1  0  0  0  0
  2  6  1  6  0  0  0
  1  7  1  1  0  0  0
  4  8  1  1  0  0  0
  7  9  1  0  0  0  0
  9 10  1  0  0  0  0
  6 11  1  0  0  0  0
  5 12  1  1  0  0  0
A    8
R3
A   10
R1
A   11
R2
M  END

>  <symbol>
Bcoh4d

>  <m_abbr>
Bcoh4d

>  <m_type>
rna

>  <m_subtype>
natural

>  <m_RgroupIdx>
9,10,7

>  <m_Rgroups>
H,H,OH

$$$$

MolEngine07221613482D

 16 16  0  0  0  0            999 V2000
    4.4547    6.2130    0.0000 O   0  0  0  0  0  0  0  0  0  0  0  0
    3.2280    5.3105    0.0000 C   0  0  0  0  0  0  0  0  0  0  0  0
    5.6922    5.3251    0.0000 C   0  0  0  0  0  0  0  0  0  0  0  0
    3.7071    3.8648    0.0000 C   0  0  0  0  0  0  0  0  0  0  0  0
    5.2301    3.8739    0.0000 C   0  0  0  0  0  0  0  0  0  0  0  0
    2.8193    2.6274    0.0000 O   0  0  0  0  0  0  0  0  0  0  0  0
    1.7767    5.7725    0.0000 C   0  0  0  0  0  0  0  0  0  0  0  0
    1.4512    7.2603    0.0000 O   0  0  0  0  0  0  0  0  0  0  0  0
    0.0000    7.7223    0.0000 R#  0  0  0  0  0  0  0  0  0  0  0  0
    7.1378    5.8044    0.0000 R#  0  0  0  0  0  0  0  0  0  0  0  0
    6.1326    2.6471    0.0000 C   0  0  0  0  0  0  0  0  0  0  0  0
    2.8193    1.0991    0.0000 R#  0  0  0  0  0  0  0  0  0  0  0  0
    7.6609    2.6471    0.0000 C   0  0  0  0  0  0  0  0  0  0  0  0
    8.4251    1.3236    0.0000 C   0  0  0  0  0  0  0  0  0  0  0  0
    9.9534    1.3236    0.0000 O   0  0  0  0  0  0  0  0  0  0  0  0
   10.7175    0.0000    0.0000 C   0  0  0  0  0  0  0  0  0  0  0  0
  1  2  1  0  0  0  0
  1  3  1  0  0  0  0
  2  4  1  0  0  0  0
  2  7  1  1  0  0  0
  3  5  1  0  0  0  0
  4  5  1  0  0  0  0
  4  6  1  6  0  0  0
  7  8  1  0  0  0  0
  8  9  1  0  0  0  0
  3 10  1  1  0  0  0
  5 11  1  6  0  0  0
  6 12  1  0  0  0  0
 11 13  1  0  0  0  0
 13 14  1  0  0  0  0
 14 15  1  0  0  0  0
 15 16  1  0  0  0  0
A    9
R1
A   10
R3
A   12
R2
M  END

>  <symbol>
mopr2d

>  <m_abbr>
mopr2d

>  <m_type>
rna

>  <m_subtype>
natural

>  <m_RgroupIdx>
8,11,9

>  <m_Rgroups>
H,H,OH

$$$$

MolEngine07221613482D

 16 16  0  0  0  0            999 V2000
    4.4392    5.0962    0.0000 O   0  0  0  0  0  0  0  0  0  0  0  0
    3.2167    4.1968    0.0000 C   0  0  0  0  0  0  0  0  0  0  0  0
    5.6723    4.2114    0.0000 C   0  0  0  0  0  0  0  0  0  0  0  0
    3.6942    2.7562    0.0000 C   0  0  0  0  0  0  0  0  0  0  0  0
    5.2119    2.7652    0.0000 C   0  0  0  0  0  0  0  0  0  0  0  0
    2.8094    1.5230    0.0000 O   0  0  0  0  0  0  0  0  0  0  0  0
    1.7705    4.6572    0.0000 C   0  0  0  0  0  0  0  0  0  0  0  0
    1.4461    6.1399    0.0000 O   0  0  0  0  0  0  0  0  0  0  0  0
    0.0000    6.6003    0.0000 R#  0  0  0  0  0  0  0  0  0  0  0  0
    7.1130    4.6889    0.0000 R#  0  0  0  0  0  0  0  0  0  0  0  0
    6.1113    1.5427    0.0000 O   0  0  0  0  0  0  0  0  0  0  0  0
    2.8094    0.0000    0.0000 R#  0  0  0  0  0  0  0  0  0  0  0  0
    7.6343    1.5427    0.0000 C   0  0  0  0  0  0  0  0  0  0  0  0
    8.3958    0.2237    0.0000 N   0  0  0  0  0  0  0  0  0  0  0  0
    8.3958    2.8616    0.0000 O   0  0  0  0  0  0  0  0  0  0  0  0
    9.9188    0.2237    0.0000 C   0  0  0  0  0  0  0  0  0  0  0  0
  1  2  1  0  0  0  0
  1  3  1  0  0  0  0
  2  4  1  0  0  0  0
  2  7  1  1  0  0  0
  3  5  1  0  0  0  0
  4  5  1  0  0  0  0
  4  6  1  6  0  0  0
  7  8  1  0  0  0  0
  8  9  1  0  0  0  0
  3 10  1  1  0  0  0
  5 11  1  6  0  0  0
  6 12  1  0  0  0  0
 11 13  1  0  0  0  0
 13 14  1  0  0  0  0
 13 15  2  0  0  0  0
 14 16  1  0  0  0  0
A    9
R1
A   10
R3
A   12
R2
M  END

>  <symbol>
mnc2r

>  <m_abbr>
mnc2r

>  <m_type>
rna

>  <m_subtype>
natural

>  <m_RgroupIdx>
8,11,9

>  <m_Rgroups>
H,H,OH

$$$$

MolEngine07221613482D

 16 16  0  0  0  0            999 V2000
    4.0293    4.9549    0.0000 C   0  0  0  0  0  0  0  0  0  0  0  0
    4.4330    3.5022    0.0000 C   0  0  0  0  0  0  0  0  0  0  0  0
    5.9558    3.5277    0.0000 C   0  0  0  0  0  0  0  0  0  0  0  0
    6.4654    4.9776    0.0000 C   0  0  0  0  0  0  0  0  0  0  0  0
    5.2860    5.9150    0.0000 O   0  0  0  0  0  0  0  0  0  0  0  0
    3.5217    2.2819    0.0000 O   0  0  0  0  0  0  0  0  0  0  0  0
    2.5853    5.4392    0.0000 C   0  0  0  0  0  0  0  0  0  0  0  0
    7.9288    5.3993    0.0000 R#  0  0  0  0  0  0  0  0  0  0  0  0
    1.4439    4.4309    0.0000 O   0  0  0  0  0  0  0  0  0  0  0  0
    0.0000    4.9153    0.0000 R#  0  0  0  0  0  0  0  0  0  0  0  0
    6.8467    2.2924    0.0000 O   0  0  0  0  0  0  0  0  0  0  0  0
    3.5217    0.7537    0.0000 R#  0  0  0  0  0  0  0  0  0  0  0  0
    6.8467    0.7641    0.0000 C   0  0  0  0  0  0  0  0  0  0  0  0
    8.1702    0.0000    0.0000 C   0  0  0  0  0  0  0  0  0  0  0  0
    9.4938    0.7641    0.0000 O   0  0  0  0  0  0  0  0  0  0  0  0
   10.8173    0.0000    0.0000 N   0  0  0  0  0  0  0  0  0  0  0  0
  1  2  1  0  0  0  0
  2  3  1  0  0  0  0
  3  4  1  0  0  0  0
  4  5  1  0  0  0  0
  5  1  1  0  0  0  0
  2  6  1  6  0  0  0
  3 11  1  6  0  0  0
  1  7  1  1  0  0  0
  4  8  1  1  0  0  0
  7  9  1  0  0  0  0
  9 10  1  0  0  0  0
  6 12  1  0  0  0  0
 11 13  1  0  0  0  0
 13 14  1  0  0  0  0
 14 15  1  0  0  0  0
 15 16  1  0  0  0  0
A    8
R3
A   10
R1
A   12
R2
M  END

>  <symbol>
aoe2r

>  <m_abbr>
aoe2r

>  <m_type>
rna

>  <m_subtype>
natural

>  <m_RgroupIdx>
9,11,7

>  <m_Rgroups>
H,H,OH

$$$$

MolEngine07221613482D

 21 22  0  0  0  0            999 V2000
    3.9168    8.0529    0.0000 C   0  0  0  0  0  0  0  0  0  0  0  0
    4.2872    6.5757    0.0000 C   0  0  0  0  0  0  0  0  0  0  0  0
    5.8256    6.5623    0.0000 C   0  0  0  0  0  0  0  0  0  0  0  0
    6.3774    8.0133    0.0000 C   0  0  0  0  0  0  0  0  0  0  0  0
    5.2104    8.9902    0.0000 O   0  0  0  0  0  0  0  0  0  0  0  0
    3.3407    5.3825    0.0000 O   0  0  0  0  0  0  0  0  0  0  0  0
    2.4856    8.5738    0.0000 C   0  0  0  0  0  0  0  0  0  0  0  0
    7.8525    8.3918    0.0000 R#  0  0  0  0  0  0  0  0  0  0  0  0
    1.3190    7.5949    0.0000 O   0  0  0  0  0  0  0  0  0  0  0  0
    0.0000    8.3564    0.0000 R#  0  0  0  0  0  0  0  0  0  0  0  0
    3.3407    3.8595    0.0000 R#  0  0  0  0  0  0  0  0  0  0  0  0
    6.6397    5.2759    0.0000 O   0  0  0  0  0  0  0  0  0  0  0  0
    8.9242    3.9569    0.0000 C   0  0  0  0  0  0  0  0  0  0  0  0
    8.1627    5.2759    0.0000 C   0  0  0  0  0  0  0  0  0  0  0  0
   10.4472    3.9569    0.0000 O   0  0  0  0  0  0  0  0  0  0  0  0
   11.2087    2.6379    0.0000 C   0  0  0  0  0  0  0  0  0  0  0  0
   10.4472    1.3190    0.0000 C   0  0  0  0  0  0  0  0  0  0  0  0
   11.2087    0.0000    0.0000 C   0  0  0  0  0  0  0  0  0  0  0  0
   12.7317    0.0000    0.0000 C   0  0  0  0  0  0  0  0  0  0  0  0
   13.4932    1.3190    0.0000 C   0  0  0  0  0  0  0  0  0  0  0  0
   12.7317    2.6379    0.0000 C   0  0  0  0  0  0  0  0  0  0  0  0
  1  2  1  0  0  0  0
  2  3  1  0  0  0  0
  3  4  1  0  0  0  0
  4  5  1  0  0  0  0
  5  1  1  0  0  0  0
  2  6  1  6  0  0  0
  3 12  1  6  0  0  0
  1  7  1  1  0  0  0
  4  8  1  1  0  0  0
  7  9  1  0  0  0  0
  9 10  1  0  0  0  0
  6 11  1  0  0  0  0
 13 14  1  0  0  0  0
 12 14  1  0  0  0  0
 13 15  1  0  0  0  0
 15 16  1  0  0  0  0
 16 17  2  0  0  0  0
 17 18  1  0  0  0  0
 18 19  2  0  0  0  0
 19 20  1  0  0  0  0
 20 21  2  0  0  0  0
 21 16  1  0  0  0  0
A    8
R3
A   10
R1
A   11
R2
M  END

>  <symbol>
phoe2r

>  <m_abbr>
phoe2r

>  <m_type>
rna

>  <m_subtype>
natural

>  <m_RgroupIdx>
9,10,7

>  <m_Rgroups>
H,H,OH

$$$$

MolEngine07221613482D

 17 17  0  0  0  0            999 V2000
    4.4547    6.2130    0.0000 O   0  0  0  0  0  0  0  0  0  0  0  0
    3.2279    5.3105    0.0000 C   0  0  0  0  0  0  0  0  0  0  0  0
    5.6921    5.3251    0.0000 C   0  0  0  0  0  0  0  0  0  0  0  0
    3.7071    3.8648    0.0000 C   0  0  0  0  0  0  0  0  0  0  0  0
    5.2301    3.8739    0.0000 C   0  0  0  0  0  0  0  0  0  0  0  0
    2.8192    2.6274    0.0000 O   0  0  0  0  0  0  0  0  0  0  0  0
    1.7767    5.7725    0.0000 C   0  0  0  0  0  0  0  0  0  0  0  0
    1.4512    7.2603    0.0000 O   0  0  0  0  0  0  0  0  0  0  0  0
    0.0000    7.7224    0.0000 R#  0  0  0  0  0  0  0  0  0  0  0  0
    7.1378    5.8044    0.0000 R#  0  0  0  0  0  0  0  0  0  0  0  0
    6.1326    2.6471    0.0000 O   0  0  0  0  0  0  0  0  0  0  0  0
    2.8192    1.0991    0.0000 R#  0  0  0  0  0  0  0  0  0  0  0  0
    7.6609    2.6471    0.0000 C   0  0  0  0  0  0  0  0  0  0  0  0
    8.4250    1.3236    0.0000 C   0  0  0  0  0  0  0  0  0  0  0  0
    9.9533    1.3236    0.0000 O   0  0  0  0  0  0  0  0  0  0  0  0
   10.7175    0.0000    0.0000 N   0  0  0  0  0  0  0  0  0  0  0  0
   12.2458    0.0000    0.0000 C   0  0  0  0  0  0  0  0  0  0  0  0
  1  2  1  0  0  0  0
  1  3  1  0  0  0  0
  2  4  1  0  0  0  0
  2  7  1  1  0  0  0
  3  5  1  0  0  0  0
  4  5  1  0  0  0  0
  4  6  1  6  0  0  0
  7  8  1  0  0  0  0
  8  9  1  0  0  0  0
  3 10  1  1  0  0  0
  5 11  1  6  0  0  0
  6 12  1  0  0  0  0
 11 13  1  0  0  0  0
 13 14  1  0  0  0  0
 14 15  1  0  0  0  0
 15 16  1  0  0  0  0
 16 17  2  0  0  0  0
A    9
R1
A   10
R3
A   12
R2
M  END

>  <symbol>
menoe2r

>  <m_abbr>
menoe2r

>  <m_type>
rna

>  <m_subtype>
natural

>  <m_RgroupIdx>
8,11,9

>  <m_Rgroups>
H,H,OH

$$$$

MolEngine07221613482D

 19 20  0  0  0  0            999 V2000
    4.0153    8.8044    0.0000 C   0  0  0  0  0  0  0  0  0  0  0  0
    4.4177    7.3567    0.0000 C   0  0  0  0  0  0  0  0  0  0  0  0
    5.9352    7.3822    0.0000 C   0  0  0  0  0  0  0  0  0  0  0  0
    6.4430    8.8269    0.0000 C   0  0  0  0  0  0  0  0  0  0  0  0
    5.2677    9.7611    0.0000 O   0  0  0  0  0  0  0  0  0  0  0  0
    3.5095    6.1407    0.0000 O   0  0  0  0  0  0  0  0  0  0  0  0
    2.5764    9.2870    0.0000 C   0  0  0  0  0  0  0  0  0  0  0  0
    7.9014    9.2473    0.0000 R#  0  0  0  0  0  0  0  0  0  0  0  0
    1.4390    8.2822    0.0000 O   0  0  0  0  0  0  0  0  0  0  0  0
    0.0000    8.7649    0.0000 R#  0  0  0  0  0  0  0  0  0  0  0  0
    6.8229    6.1511    0.0000 O   0  0  0  0  0  0  0  0  0  0  0  0
    3.5095    4.6177    0.0000 R#  0  0  0  0  0  0  0  0  0  0  0  0
    6.8229    4.6281    0.0000 C   0  0  0  0  0  0  0  0  0  0  0  0
    8.1419    3.8666    0.0000 C   0  0  0  0  0  0  0  0  0  0  0  0
    8.1419    2.3436    0.0000 N   0  0  0  0  0  0  0  0  0  0  0  0
    6.9098    1.4484    0.0000 C   0  0  0  0  0  0  0  0  0  0  0  0
    7.3804    0.0000    0.0000 C   0  0  0  0  0  0  0  0  0  0  0  0
    8.9034    0.0000    0.0000 N   0  0  0  0  0  0  0  0  0  0  0  0
    9.3740    1.4484    0.0000 C   0  0  0  0  0  0  0  0  0  0  0  0
  1  2  1  0  0  0  0
  2  3  1  0  0  0  0
  3  4  1  0  0  0  0
  4  5  1  0  0  0  0
  5  1  1  0  0  0  0
  2  6  1  6  0  0  0
  3 11  1  6  0  0  0
  1  7  1  1  0  0  0
  4  8  1  1  0  0  0
  7  9  1  0  0  0  0
  9 10  1  0  0  0  0
  6 12  1  0  0  0  0
 11 13  1  0  0  0  0
 13 14  1  0  0  0  0
 14 15  1  0  0  0  0
 15 16  1  0  0  0  0
 16 17  2  0  0  0  0
 17 18  1  0  0  0  0
 18 19  2  0  0  0  0
 19 15  1  0  0  0  0
A    8
R3
A   10
R1
A   12
R2
M  END

>  <symbol>
ime2r

>  <m_abbr>
ime2r

>  <m_type>
rna

>  <m_subtype>
natural

>  <m_RgroupIdx>
9,11,7

>  <m_Rgroups>
H,H,OH

$$$$

MolEngine07221613482D

 16 16  0  0  0  0            999 V2000
    4.4547    6.2129    0.0000 O   0  0  0  0  0  0  0  0  0  0  0  0
    3.2280    5.3104    0.0000 C   0  0  0  0  0  0  0  0  0  0  0  0
    5.6922    5.3251    0.0000 C   0  0  0  0  0  0  0  0  0  0  0  0
    3.7071    3.8648    0.0000 C   0  0  0  0  0  0  0  0  0  0  0  0
    5.2301    3.8739    0.0000 C   0  0  0  0  0  0  0  0  0  0  0  0
    2.8193    2.6274    0.0000 O   0  0  0  0  0  0  0  0  0  0  0  0
    1.7767    5.7725    0.0000 C   0  0  0  0  0  0  0  0  0  0  0  0
    1.4512    7.2603    0.0000 O   0  0  0  0  0  0  0  0  0  0  0  0
    0.0000    7.7223    0.0000 R#  0  0  0  0  0  0  0  0  0  0  0  0
    7.1378    5.8043    0.0000 R#  0  0  0  0  0  0  0  0  0  0  0  0
    6.1326    2.6471    0.0000 O   0  0  0  0  0  0  0  0  0  0  0  0
    2.8193    1.0991    0.0000 R#  0  0  0  0  0  0  0  0  0  0  0  0
    7.6609    2.6471    0.0000 C   0  0  0  0  0  0  0  0  0  0  0  0
    8.4251    1.3235    0.0000 O   0  0  0  0  0  0  0  0  0  0  0  0
    9.9534    1.3235    0.0000 C   0  0  0  0  0  0  0  0  0  0  0  0
   10.7175    0.0000    0.0000 C   0  0  0  0  0  0  0  0  0  0  0  0
  1  2  1  0  0  0  0
  1  3  1  0  0  0  0
  2  4  1  0  0  0  0
  2  7  1  1  0  0  0
  3  5  1  0  0  0  0
  4  5  1  0  0  0  0
  4  6  1  6  0  0  0
  7  8  1  0  0  0  0
  8  9  1  0  0  0  0
  3 10  1  1  0  0  0
  5 11  1  6  0  0  0
  6 12  1  0  0  0  0
 11 13  1  0  0  0  0
 13 14  1  0  0  0  0
 14 15  1  0  0  0  0
 15 16  1  0  0  0  0
A    9
R1
A   10
R3
A   12
R2
M  END

>  <symbol>
eom2r

>  <m_abbr>
eom2r

>  <m_type>
rna

>  <m_subtype>
natural

>  <m_RgroupIdx>
8,11,9

>  <m_Rgroups>
H,H,OH

$$$$

MolEngine07221613482D

 20 21  0  0  0  0            999 V2000
    8.9163    2.8710    0.0000 C   0  0  0  0  0  0  0  0  0  0  0  0
    8.1574    4.1854    0.0000 C   0  0  0  0  0  0  0  0  0  0  0  0
   10.4257    2.7124    0.0000 O   0  0  0  0  0  0  0  0  0  0  0  0
    8.2990    1.4845    0.0000 C   0  0  0  0  0  0  0  0  0  0  0  0
    9.4269    0.4690    0.0000 O   0  0  0  0  0  0  0  0  0  0  0  0
   10.7413    1.2278    0.0000 C   0  0  0  0  0  0  0  0  0  0  0  0
   11.6333    0.0000    0.0000 C   0  0  0  0  0  0  0  0  0  0  0  0
   12.2507    1.3864    0.0000 C   0  0  0  0  0  0  0  0  0  0  0  0
    3.9168    6.9624    0.0000 C   0  0  0  0  0  0  0  0  0  0  0  0
    4.2872    5.4852    0.0000 C   0  0  0  0  0  0  0  0  0  0  0  0
    5.8256    5.4718    0.0000 C   0  0  0  0  0  0  0  0  0  0  0  0
    6.3774    6.9228    0.0000 C   0  0  0  0  0  0  0  0  0  0  0  0
    5.2105    7.8997    0.0000 O   0  0  0  0  0  0  0  0  0  0  0  0
    3.3407    4.2920    0.0000 O   0  0  0  0  0  0  0  0  0  0  0  0
    2.4857    7.4833    0.0000 C   0  0  0  0  0  0  0  0  0  0  0  0
    7.8526    7.3014    0.0000 R#  0  0  0  0  0  0  0  0  0  0  0  0
    1.3190    6.5044    0.0000 O   0  0  0  0  0  0  0  0  0  0  0  0
    0.0000    7.2659    0.0000 R#  0  0  0  0  0  0  0  0  0  0  0  0
    3.3407    2.7690    0.0000 R#  0  0  0  0  0  0  0  0  0  0  0  0
    6.6397    4.1854    0.0000 O   0  0  0  0  0  0  0  0  0  0  0  0
  1  2  1  6  0  0  0
 20  2  1  0  0  0  0
  3  1  1  0  0  0  0
  1  4  1  0  0  0  0
  4  5  1  0  0  0  0
  5  6  1  0  0  0  0
  6  3  1  0  0  0  0
  6  7  1  0  0  0  0
  6  8  1  0  0  0  0
  9 10  1  0  0  0  0
 10 11  1  0  0  0  0
 11 12  1  0  0  0  0
 12 13  1  0  0  0  0
 13  9  1  0  0  0  0
 10 14  1  6  0  0  0
 11 20  1  6  0  0  0
  9 15  1  1  0  0  0
 12 16  1  1  0  0  0
 15 17  1  0  0  0  0
 17 18  1  0  0  0  0
 14 19  1  0  0  0  0
A   16
R3
A   18
R1
A   19
R2
M  END

>  <symbol>
Diprglyol2r

>  <m_abbr>
Diprglyol2r

>  <m_type>
rna

>  <m_subtype>
natural

>  <m_RgroupIdx>
17,18,15

>  <m_Rgroups>
H,H,OH

$$$$

MolEngine07221613482D

 20 21  0  0  0  0            999 V2000
    8.9163    2.8710    0.0000 C   0  0  0  0  0  0  0  0  0  0  0  0
    8.1574    4.1854    0.0000 C   0  0  0  0  0  0  0  0  0  0  0  0
   10.4257    2.7124    0.0000 O   0  0  0  0  0  0  0  0  0  0  0  0
    8.2990    1.4845    0.0000 C   0  0  0  0  0  0  0  0  0  0  0  0
    9.4269    0.4690    0.0000 O   0  0  0  0  0  0  0  0  0  0  0  0
   10.7413    1.2278    0.0000 C   0  0  0  0  0  0  0  0  0  0  0  0
   11.6333    0.0000    0.0000 C   0  0  0  0  0  0  0  0  0  0  0  0
   12.2507    1.3864    0.0000 C   0  0  0  0  0  0  0  0  0  0  0  0
    3.9168    6.9624    0.0000 C   0  0  0  0  0  0  0  0  0  0  0  0
    4.2872    5.4852    0.0000 C   0  0  0  0  0  0  0  0  0  0  0  0
    5.8256    5.4718    0.0000 C   0  0  0  0  0  0  0  0  0  0  0  0
    6.3774    6.9228    0.0000 C   0  0  0  0  0  0  0  0  0  0  0  0
    5.2105    7.8997    0.0000 O   0  0  0  0  0  0  0  0  0  0  0  0
    3.3407    4.2920    0.0000 O   0  0  0  0  0  0  0  0  0  0  0  0
    2.4857    7.4833    0.0000 C   0  0  0  0  0  0  0  0  0  0  0  0
    7.8526    7.3014    0.0000 R#  0  0  0  0  0  0  0  0  0  0  0  0
    1.3190    6.5044    0.0000 O   0  0  0  0  0  0  0  0  0  0  0  0
    0.0000    7.2659    0.0000 R#  0  0  0  0  0  0  0  0  0  0  0  0
    3.3407    2.7690    0.0000 R#  0  0  0  0  0  0  0  0  0  0  0  0
    6.6397    4.1854    0.0000 O   0  0  0  0  0  0  0  0  0  0  0  0
  1  2  1  1  0  0  0
 20  2  1  0  0  0  0
  3  1  1  0  0  0  0
  1  4  1  0  0  0  0
  4  5  1  0  0  0  0
  5  6  1  0  0  0  0
  6  3  1  0  0  0  0
  6  7  1  0  0  0  0
  6  8  1  0  0  0  0
  9 10  1  0  0  0  0
 10 11  1  0  0  0  0
 11 12  1  0  0  0  0
 12 13  1  0  0  0  0
 13  9  1  0  0  0  0
 10 14  1  6  0  0  0
 11 20  1  6  0  0  0
  9 15  1  1  0  0  0
 12 16  1  1  0  0  0
 15 17  1  0  0  0  0
 17 18  1  0  0  0  0
 14 19  1  0  0  0  0
A   16
R3
A   18
R1
A   19
R2
M  END

>  <symbol>
Liprglyol2r

>  <m_abbr>
Liprglyol2r

>  <m_type>
rna

>  <m_subtype>
natural

>  <m_RgroupIdx>
17,18,15

>  <m_Rgroups>
H,H,OH

$$$$

MolEngine07221613482D

 15 15  0  0  0  0            999 V2000
    3.9168    4.1935    0.0000 C   0  0  0  0  0  0  0  0  0  0  0  0
    4.2872    2.7162    0.0000 C   0  0  0  0  0  0  0  0  0  0  0  0
    5.8256    2.7028    0.0000 C   0  0  0  0  0  0  0  0  0  0  0  0
    6.3774    4.1538    0.0000 C   0  0  0  0  0  0  0  0  0  0  0  0
    5.2105    5.1307    0.0000 O   0  0  0  0  0  0  0  0  0  0  0  0
    3.3407    1.5230    0.0000 O   0  0  0  0  0  0  0  0  0  0  0  0
    2.4857    4.7144    0.0000 C   0  0  0  0  0  0  0  0  0  0  0  0
    7.8526    4.5324    0.0000 R#  0  0  0  0  0  0  0  0  0  0  0  0
    1.3190    3.7354    0.0000 O   0  0  0  0  0  0  0  0  0  0  0  0
    0.0000    4.4969    0.0000 R#  0  0  0  0  0  0  0  0  0  0  0  0
    3.3407    0.0000    0.0000 R#  0  0  0  0  0  0  0  0  0  0  0  0
    6.6397    1.4164    0.0000 O   0  0  0  0  0  0  0  0  0  0  0  0
    8.9242    0.0974    0.0000 C   0  0  0  0  0  0  0  0  0  0  0  0
    8.1627    1.4164    0.0000 C   0  0  0  0  0  0  0  0  0  0  0  0
    8.9242    2.7353    0.0000 C   0  0  0  0  0  0  0  0  0  0  0  0
  1  2  1  0  0  0  0
  2  3  1  0  0  0  0
  3  4  1  0  0  0  0
  4  5  1  0  0  0  0
  5  1  1  0  0  0  0
  2  6  1  6  0  0  0
  3 12  1  6  0  0  0
  1  7  1  1  0  0  0
  4  8  1  1  0  0  0
  7  9  1  0  0  0  0
  9 10  1  0  0  0  0
  6 11  1  0  0  0  0
 13 14  1  0  0  0  0
 12 14  1  0  0  0  0
 14 15  1  0  0  0  0
A    8
R3
A   10
R1
A   11
R2
M  END

>  <symbol>
ipr2r

>  <m_abbr>
ipr2r

>  <m_type>
rna

>  <m_subtype>
natural

>  <m_RgroupIdx>
9,10,7

>  <m_Rgroups>
H,H,OH

$$$$

MolEngine07221613482D

 18 18  0  0  0  0            999 V2000
    3.9168    5.1730    0.0000 C   0  0  0  0  0  0  0  0  0  0  0  0
    4.2872    3.6957    0.0000 C   0  0  0  0  0  0  0  0  0  0  0  0
    5.8256    3.6823    0.0000 C   0  0  0  0  0  0  0  0  0  0  0  0
    6.3774    5.1333    0.0000 C   0  0  0  0  0  0  0  0  0  0  0  0
    5.2105    6.1102    0.0000 O   0  0  0  0  0  0  0  0  0  0  0  0
    3.3407    2.5025    0.0000 O   0  0  0  0  0  0  0  0  0  0  0  0
    2.4857    5.6939    0.0000 C   0  0  0  0  0  0  0  0  0  0  0  0
    7.8526    5.5119    0.0000 R#  0  0  0  0  0  0  0  0  0  0  0  0
    1.3190    4.7149    0.0000 O   0  0  0  0  0  0  0  0  0  0  0  0
    0.0000    5.4764    0.0000 R#  0  0  0  0  0  0  0  0  0  0  0  0
    3.3407    0.9795    0.0000 R#  0  0  0  0  0  0  0  0  0  0  0  0
    6.6397    2.3959    0.0000 O   0  0  0  0  0  0  0  0  0  0  0  0
    8.9242    1.0769    0.0000 C   0  0  0  0  0  0  0  0  0  0  0  0
    8.1627    2.3959    0.0000 C   0  0  0  0  0  0  0  0  0  0  0  0
   10.4472    1.0769    0.0000 C   0  0  0  0  0  0  0  0  0  0  0  0
   11.9702    1.0769    0.0000 F   0  0  0  0  0  0  0  0  0  0  0  0
   11.2087    2.3959    0.0000 F   0  0  0  0  0  0  0  0  0  0  0  0
   11.5242    0.0000    0.0000 F   0  0  0  0  0  0  0  0  0  0  0  0
  1  2  1  0  0  0  0
  2  3  1  0  0  0  0
  3  4  1  0  0  0  0
  4  5  1  0  0  0  0
  5  1  1  0  0  0  0
  2  6  1  6  0  0  0
  3 12  1  6  0  0  0
  1  7  1  1  0  0  0
  4  8  1  1  0  0  0
  7  9  1  0  0  0  0
  9 10  1  0  0  0  0
  6 11  1  0  0  0  0
 13 14  1  0  0  0  0
 12 14  1  0  0  0  0
 13 15  1  0  0  0  0
 15 16  1  0  0  0  0
 15 17  1  0  0  0  0
 15 18  1  0  0  0  0
A    8
R3
A   10
R1
A   11
R2
M  END

>  <symbol>
fl3pr2r

>  <m_abbr>
fl3pr2r

>  <m_type>
rna

>  <m_subtype>
natural

>  <m_RgroupIdx>
9,10,7

>  <m_Rgroups>
H,H,OH

$$$$

MolEngine07221613482D

 13 13  0  0  0  0            999 V2000
    3.9168    4.1934    0.0000 C   0  0  0  0  0  0  0  0  0  0  0  0
    4.2872    2.7162    0.0000 C   0  0  0  0  0  0  0  0  0  0  0  0
    5.8255    2.7028    0.0000 C   0  0  0  0  0  0  0  0  0  0  0  0
    6.3773    4.1538    0.0000 C   0  0  0  0  0  0  0  0  0  0  0  0
    5.2104    5.1307    0.0000 C   0  0  0  0  0  0  0  0  0  0  0  0
    3.3407    1.5230    0.0000 O   0  0  0  0  0  0  0  0  0  0  0  0
    2.4856    4.7143    0.0000 C   0  0  0  0  0  0  0  0  0  0  0  0
    7.8525    4.5323    0.0000 R#  0  0  0  0  0  0  0  0  0  0  0  0
    1.3189    3.7353    0.0000 O   0  0  0  0  0  0  0  0  0  0  0  0
    0.0000    4.4969    0.0000 R#  0  0  0  0  0  0  0  0  0  0  0  0
    3.3407    0.0000    0.0000 R#  0  0  0  0  0  0  0  0  0  0  0  0
    6.6397    1.4164    0.0000 O   0  0  0  0  0  0  0  0  0  0  0  0
    8.1627    1.4164    0.0000 C   0  0  0  0  0  0  0  0  0  0  0  0
  1  2  1  0  0  0  0
  2  3  1  0  0  0  0
  3  4  1  0  0  0  0
  4  5  1  0  0  0  0
  5  1  1  0  0  0  0
  2  6  1  6  0  0  0
  3 12  1  6  0  0  0
  1  7  1  1  0  0  0
  4  8  1  1  0  0  0
  7  9  1  0  0  0  0
  9 10  1  0  0  0  0
  6 11  1  0  0  0  0
 12 13  1  0  0  0  0
A    8
R3
A   10
R1
A   11
R2
M  END

>  <symbol>
c4m

>  <m_abbr>
c4m

>  <m_type>
rna

>  <m_subtype>
natural

>  <m_RgroupIdx>
9,10,7

>  <m_Rgroups>
H,H,OH

$$$$

MolEngine07221613482D

 12 12  0  0  0  0            999 V2000
    3.9168    4.1935    0.0000 C   0  0  0  0  0  0  0  0  0  0  0  0
    4.2872    2.7162    0.0000 C   0  0  0  0  0  0  0  0  0  0  0  0
    5.8256    2.7028    0.0000 C   0  0  0  0  0  0  0  0  0  0  0  0
    6.3774    4.1538    0.0000 C   0  0  0  0  0  0  0  0  0  0  0  0
    5.2105    5.1307    0.0000 O   0  0  0  0  0  0  0  0  0  0  0  0
    3.3407    1.5230    0.0000 O   0  0  0  0  0  0  0  0  0  0  0  0
    2.4857    4.7144    0.0000 C   0  0  0  0  0  0  0  0  0  0  0  0
    7.8526    4.5324    0.0000 R#  0  0  0  0  0  0  0  0  0  0  0  0
    1.3190    3.7354    0.0000 O   0  0  0  0  0  0  0  0  0  0  0  0
    0.0000    4.4969    0.0000 R#  0  0  0  0  0  0  0  0  0  0  0  0
    3.3407    0.0000    0.0000 R#  0  0  0  0  0  0  0  0  0  0  0  0
    2.8161    3.1104    0.0000 C   0  0  0  0  0  0  0  0  0  0  0  0
  1  2  1  0  0  0  0
  2  3  1  0  0  0  0
  3  4  1  0  0  0  0
  4  5  1  0  0  0  0
  5  1  1  0  0  0  0
  2  6  1  6  0  0  0
  1  7  1  1  0  0  0
  4  8  1  1  0  0  0
  7  9  1  0  0  0  0
  9 10  1  0  0  0  0
  6 11  1  0  0  0  0
  2 12  1  1  0  0  0
A    8
R3
A   10
R1
A   11
R2
M  END

>  <symbol>
Bcm3d

>  <m_abbr>
Bcm3d

>  <m_type>
rna

>  <m_subtype>
natural

>  <m_RgroupIdx>
9,10,7

>  <m_Rgroups>
H,H,OH

$$$$

MolEngine07221613482D

 14 14  0  0  0  0            999 V2000
    3.9168    4.1934    0.0000 C   0  0  0  0  0  0  0  0  0  0  0  0
    4.2872    2.7162    0.0000 C   0  0  0  0  0  0  0  0  0  0  0  0
    5.8255    2.7028    0.0000 C   0  0  0  0  0  0  0  0  0  0  0  0
    6.3773    4.1538    0.0000 C   0  0  0  0  0  0  0  0  0  0  0  0
    5.2104    5.1307    0.0000 N   0  0  0  0  0  0  0  0  0  0  0  0
    3.3407    1.5230    0.0000 O   0  0  0  0  0  0  0  0  0  0  0  0
    2.4856    4.7143    0.0000 C   0  0  0  0  0  0  0  0  0  0  0  0
    7.8525    4.5324    0.0000 R#  0  0  0  0  0  0  0  0  0  0  0  0
    1.3189    3.7354    0.0000 O   0  0  0  0  0  0  0  0  0  0  0  0
    0.0000    4.4969    0.0000 R#  0  0  0  0  0  0  0  0  0  0  0  0
    3.3407    0.0000    0.0000 R#  0  0  0  0  0  0  0  0  0  0  0  0
    5.2637    6.6528    0.0000 C   0  0  0  0  0  0  0  0  0  0  0  0
    6.5827    7.4143    0.0000 C   0  0  0  0  0  0  0  0  0  0  0  0
    3.9583    7.4372    0.0000 O   0  0  0  0  0  0  0  0  0  0  0  0
  1  2  1  0  0  0  0
  2  3  1  0  0  0  0
  3  4  1  0  0  0  0
  4  5  1  0  0  0  0
  5  1  1  0  0  0  0
  2  6  1  6  0  0  0
  1  7  1  1  0  0  0
  4  8  1  1  0  0  0
  7  9  1  0  0  0  0
  9 10  1  0  0  0  0
  6 11  1  0  0  0  0
  5 12  1  0  0  0  0
 12 13  1  0  0  0  0
 12 14  2  0  0  0  0
A    8
R3
A   10
R1
A   11
R2
M  END

>  <symbol>
acn4d

>  <m_abbr>
acn4d

>  <m_type>
rna

>  <m_subtype>
natural

>  <m_RgroupIdx>
9,10,7

>  <m_Rgroups>
H,H,OH

$$$$

MolEngine07221613482D

 17 17  0  0  0  0            999 V2000
    3.9168    5.4104    0.0000 C   0  0  0  0  0  0  0  0  0  0  0  0
    4.2872    3.9331    0.0000 C   0  0  0  0  0  0  0  0  0  0  0  0
    5.8256    3.9198    0.0000 C   0  0  0  0  0  0  0  0  0  0  0  0
    6.3716    5.3557    0.0000 C   0  0  0  0  0  0  0  0  0  0  0  0
    5.2104    6.3476    0.0000 O   0  0  0  0  0  0  0  0  0  0  0  0
    3.3407    2.7399    0.0000 O   0  0  0  0  0  0  0  0  0  0  0  0
    2.4856    5.9313    0.0000 C   0  0  0  0  0  0  0  0  0  0  0  0
    7.8526    5.7493    0.0000 R#  0  0  0  0  0  0  0  0  0  0  0  0
    1.3189    4.9523    0.0000 O   0  0  0  0  0  0  0  0  0  0  0  0
    0.0000    5.7138    0.0000 R#  0  0  0  0  0  0  0  0  0  0  0  0
    3.3407    1.2170    0.0000 R#  0  0  0  0  0  0  0  0  0  0  0  0
    6.6397    2.6333    0.0000 O   0  0  0  0  0  0  0  0  0  0  0  0
    8.9242    1.3144    0.0000 C   0  0  0  0  0  0  0  0  0  0  0  0
    8.1627    2.6333    0.0000 C   0  0  0  0  0  0  0  0  0  0  0  0
   10.4419    1.3144    0.0000 N   0  0  0  0  0  0  0  0  0  0  0  0
   11.2008    2.6287    0.0000 C   0  0  0  0  0  0  0  0  0  0  0  0
   11.2008    0.0000    0.0000 C   0  0  0  0  0  0  0  0  0  0  0  0
  1  2  1  0  0  0  0
  2  3  1  0  0  0  0
  3  4  1  0  0  0  0
  4  5  1  0  0  0  0
  5  1  1  0  0  0  0
  2  6  1  6  0  0  0
  3 12  1  6  0  0  0
  1  7  1  1  0  0  0
  4  8  1  1  0  0  0
  7  9  1  0  0  0  0
  9 10  1  0  0  0  0
  6 11  1  0  0  0  0
 13 14  1  0  0  0  0
 12 14  1  0  0  0  0
 15 17  1  0  0  0  0
 15 16  1  0  0  0  0
 13 15  1  0  0  0  0
A    8
R3
A   10
R1
A   11
R2
M  END

>  <symbol>
m2e2r

>  <m_abbr>
m2e2r

>  <m_type>
rna

>  <m_subtype>
natural

>  <m_RgroupIdx>
9,10,7

>  <m_Rgroups>
H,H,OH

$$$$

MolEngine07221613482D

 16 16  0  0  0  0            999 V2000
    4.0295    7.2837    0.0000 C   0  0  0  0  0  0  0  0  0  0  0  0
    4.4725    5.8266    0.0000 C   0  0  0  0  0  0  0  0  0  0  0  0
    5.9952    5.7976    0.0000 C   0  0  0  0  0  0  0  0  0  0  0  0
    6.4933    7.2368    0.0000 C   0  0  0  0  0  0  0  0  0  0  0  0
    5.2784    8.1553    0.0000 O   0  0  0  0  0  0  0  0  0  0  0  0
    2.5902    7.7818    0.0000 C   0  0  0  0  0  0  0  0  0  0  0  0
    3.5540    4.6117    0.0000 O   0  0  0  0  0  0  0  0  0  0  0  0
    1.4392    6.7845    0.0000 O   0  0  0  0  0  0  0  0  0  0  0  0
    0.0000    7.2826    0.0000 R#  0  0  0  0  0  0  0  0  0  0  0  0
    3.6047    3.0895    0.0000 C   0  0  0  0  0  0  0  0  0  0  0  0
    6.8668    4.5487    0.0000 O   0  0  0  0  0  0  0  0  0  0  0  0
    7.9504    7.6798    0.0000 R#  0  0  0  0  0  0  0  0  0  0  0  0
    6.8668    3.0256    0.0000 R#  0  0  0  0  0  0  0  0  0  0  0  0
    2.3119    2.2845    0.0000 C   0  0  0  0  0  0  0  0  0  0  0  0
    2.3119    0.7615    0.0000 O   0  0  0  0  0  0  0  0  0  0  0  0
    0.9929    0.0000    0.0000 C   0  0  0  0  0  0  0  0  0  0  0  0
  1  2  1  0  0  0  0
  2  3  1  0  0  0  0
  3  4  1  0  0  0  0
  4  5  1  0  0  0  0
  5  1  1  0  0  0  0
  1  6  1  1  0  0  0
  2  7  1  6  0  0  0
  6  8  1  0  0  0  0
  8  9  1  0  0  0  0
  7 10  1  0  0  0  0
  3 11  1  6  0  0  0
  4 12  1  1  0  0  0
 11 13  1  0  0  0  0
 10 14  1  0  0  0  0
 14 15  1  0  0  0  0
 15 16  1  0  0  0  0
A    9
R1
A   12
R3
A   13
R2
M  END

>  <symbol>
25moe3r

>  <m_abbr>
25moe3r

>  <m_type>
rna

>  <m_subtype>
natural

>  <m_RgroupIdx>
8,12,11

>  <m_Rgroups>
H,H,OH

$$$$

MolEngine07221613482D

 52 56  0  0  0  0            999 V2000
    4.0153   17.4006    0.0000 C   0  0  0  0  0  0  0  0  0  0  0  0
    4.4176   15.9530    0.0000 C   0  0  0  0  0  0  0  0  0  0  0  0
    5.9351   15.9784    0.0000 C   0  0  0  0  0  0  0  0  0  0  0  0
    6.4430   17.4232    0.0000 C   0  0  0  0  0  0  0  0  0  0  0  0
    5.2676   18.3574    0.0000 O   0  0  0  0  0  0  0  0  0  0  0  0
    3.5095   14.7370    0.0000 O   0  0  0  0  0  0  0  0  0  0  0  0
    2.5764   17.8833    0.0000 C   0  0  0  0  0  0  0  0  0  0  0  0
    7.9013   17.8435    0.0000 R#  0  0  0  0  0  0  0  0  0  0  0  0
    1.4389   16.8785    0.0000 O   0  0  0  0  0  0  0  0  0  0  0  0
    0.0000   17.3611    0.0000 R#  0  0  0  0  0  0  0  0  0  0  0  0
    4.1085   13.3425    0.0000 C   0  0  0  0  0  0  0  0  0  0  0  0
    6.8229   14.7474    0.0000 O   0  0  0  0  0  0  0  0  0  0  0  0
    8.3328   14.9007    0.0000 R#  0  0  0  0  0  0  0  0  0  0  0  0
    3.2003   12.1264    0.0000 C   0  0  0  0  0  0  0  0  0  0  0  0
    3.7993   10.7319    0.0000 C   0  0  0  0  0  0  0  0  0  0  0  0
    2.8912    9.5159    0.0000 C   0  0  0  0  0  0  0  0  0  0  0  0
    3.4902    8.1214    0.0000 C   0  0  0  0  0  0  0  0  0  0  0  0
    2.5820    6.9054    0.0000 C   0  0  0  0  0  0  0  0  0  0  0  0
    3.3435    5.5865    0.0000 N   0  0  0  0  0  0  0  0  0  0  0  0
    4.8311    2.9284    0.0000 C   0  0  0  0  0  0  0  0  0  0  0  0
    5.6102    4.2370    0.0000 C   0  0  0  0  0  0  0  0  0  0  0  0
    7.1332    4.2166    0.0000 C   0  0  0  0  0  0  0  0  0  0  0  0
    5.5750    1.5994    0.0000 C   0  0  0  0  0  0  0  0  0  0  0  0
    7.0978    1.5789    0.0000 C   0  0  0  0  0  0  0  0  0  0  0  0
    7.8416    0.2499    0.0000 C   0  0  0  0  0  0  0  0  0  0  0  0
    9.3644    0.2295    0.0000 C   0  0  0  0  0  0  0  0  0  0  0  0
   10.1435    1.5381    0.0000 C   0  0  0  0  0  0  0  0  0  0  0  0
   11.6664    1.5177    0.0000 C   0  0  0  0  0  0  0  0  0  0  0  0
   12.6702    0.3723    0.0000 C   0  0  0  0  0  0  0  0  0  0  0  0
   14.0697    0.9731    0.0000 C   0  0  0  0  0  0  0  0  0  0  0  0
   13.9309    2.4898    0.0000 C   0  0  0  0  0  0  0  0  0  0  0  0
   15.0763    3.4936    0.0000 C   0  0  0  0  0  0  0  0  0  0  0  0
   16.5183    3.0035    0.0000 C   0  0  0  0  0  0  0  0  0  0  0  0
   17.6637    4.0073    0.0000 C   0  0  0  0  0  0  0  0  0  0  0  0
   19.1057    3.5172    0.0000 C   0  0  0  0  0  0  0  0  0  0  0  0
   20.2511    4.5209    0.0000 C   0  0  0  0  0  0  0  0  0  0  0  0
   21.6931    4.0309    0.0000 C   0  0  0  0  0  0  0  0  0  0  0  0
   19.9546    6.0148    0.0000 C   0  0  0  0  0  0  0  0  0  0  0  0
   14.7797    4.9874    0.0000 C   0  0  0  0  0  0  0  0  0  0  0  0
   12.4455    2.8264    0.0000 C   0  0  0  0  0  0  0  0  0  0  0  0
   13.3572    4.0464    0.0000 C   0  0  0  0  0  0  0  0  0  0  0  0
   11.7017    4.1554    0.0000 C   0  0  0  0  0  0  0  0  0  0  0  0
   10.1789    4.1758    0.0000 C   0  0  0  0  0  0  0  0  0  0  0  0
    9.3998    2.8672    0.0000 C   0  0  0  0  0  0  0  0  0  0  0  0
    7.8769    2.8875    0.0000 C   0  0  0  0  0  0  0  0  0  0  0  0
    8.1614    4.3837    0.0000 C   0  0  0  0  0  0  0  0  0  0  0  0
    3.3083    2.9488    0.0000 O   0  0  0  0  0  0  0  0  0  0  0  0
    9.1554    4.3704    0.0000 H   0  0  0  0  0  0  0  0  0  0  0  0
   10.3879    0.0348    0.0000 H   0  0  0  0  0  0  0  0  0  0  0  0
   11.5398    0.0000    0.0000 H   0  0  0  0  0  0  0  0  0  0  0  0
    2.5645    4.2778    0.0000 C   0  0  0  0  0  0  0  0  0  0  0  0
    1.0416    4.2982    0.0000 O   0  0  0  0  0  0  0  0  0  0  0  0
  1  2  1  0  0  0  0
  2  3  1  0  0  0  0
  3  4  1  0  0  0  0
  4  5  1  0  0  0  0
  5  1  1  0  0  0  0
  2  6  1  6  0  0  0
  3 12  1  6  0  0  0
  1  7  1  1  0  0  0
  4  8  1  1  0  0  0
  7  9  1  0  0  0  0
  9 10  1  0  0  0  0
  6 11  1  0  0  0  0
 12 13  1  0  0  0  0
 11 14  1  0  0  0  0
 14 15  1  0  0  0  0
 15 16  1  0  0  0  0
 16 17  1  0  0  0  0
 17 18  1  0  0  0  0
 18 19  1  0  0  0  0
 19 51  1  0  0  0  0
 20 21  1  0  0  0  0
 21 22  1  0  0  0  0
 20 23  1  0  0  0  0
 23 24  1  0  0  0  0
 24 25  2  0  0  0  0
 25 26  1  0  0  0  0
 26 27  1  0  0  0  0
 27 28  1  0  0  0  0
 28 29  1  0  0  0  0
 29 30  1  0  0  0  0
 31 30  1  1  0  0  0
 31 32  1  0  0  0  0
 32 33  1  0  0  0  0
 33 34  1  0  0  0  0
 34 35  1  0  0  0  0
 35 36  1  0  0  0  0
 36 37  1  0  0  0  0
 36 38  1  0  0  0  0
 32 39  1  6  0  0  0
 31 40  1  0  0  0  0
 28 40  1  0  0  0  0
 40 41  1  1  0  0  0
 40 42  1  0  0  0  0
 42 43  1  0  0  0  0
 43 44  1  0  0  0  0
 27 44  1  0  0  0  0
 44 45  1  0  0  0  0
 22 45  1  0  0  0  0
 24 45  1  0  0  0  0
 45 46  1  1  0  0  0
 20 47  1  1  0  0  0
 44 48  1  6  0  0  0
 27 49  1  1  0  0  0
 28 50  1  6  0  0  0
 51 52  2  0  0  0  0
 51 47  1  0  0  0  0
A    8
R3
A   10
R1
A   13
R2
M  END

>  <symbol>
25cholcnC63r

>  <m_abbr>
25cholcnC63r

>  <m_type>
rna

>  <m_subtype>
natural

>  <m_RgroupIdx>
9,12,7

>  <m_Rgroups>
H,H,OH

$$$$

MolEngine07221613482D

 53 57  0  0  0  0            999 V2000
   19.5842    2.5237    0.0000 C   0  0  0  0  0  0  0  0  0  0  0  0
   20.2965    3.8698    0.0000 C   0  0  0  0  0  0  0  0  0  0  0  0
   21.8184    3.9260    0.0000 C   0  0  0  0  0  0  0  0  0  0  0  0
   20.3938    1.2337    0.0000 C   0  0  0  0  0  0  0  0  0  0  0  0
   21.9158    1.2899    0.0000 C   0  0  0  0  0  0  0  0  0  0  0  0
   22.7254    0.0000    0.0000 C   0  0  0  0  0  0  0  0  0  0  0  0
   24.2474    0.0562    0.0000 C   0  0  0  0  0  0  0  0  0  0  0  0
   24.9597    1.4023    0.0000 C   0  0  0  0  0  0  0  0  0  0  0  0
   26.4764    1.4583    0.0000 C   0  0  0  0  0  0  0  0  0  0  0  0
   27.5418    0.3651    0.0000 C   0  0  0  0  0  0  0  0  0  0  0  0
   28.9094    1.0355    0.0000 C   0  0  0  0  0  0  0  0  0  0  0  0
   28.6944    2.5432    0.0000 C   0  0  0  0  0  0  0  0  0  0  0  0
   29.7878    3.6034    0.0000 C   0  0  0  0  0  0  0  0  0  0  0  0
   31.2526    3.1865    0.0000 C   0  0  0  0  0  0  0  0  0  0  0  0
   32.3461    4.2467    0.0000 C   0  0  0  0  0  0  0  0  0  0  0  0
   33.8109    3.8298    0.0000 C   0  0  0  0  0  0  0  0  0  0  0  0
   34.9043    4.8900    0.0000 C   0  0  0  0  0  0  0  0  0  0  0  0
   34.4561    6.3455    0.0000 C   0  0  0  0  0  0  0  0  0  0  0  0
   36.3692    4.4731    0.0000 C   0  0  0  0  0  0  0  0  0  0  0  0
   29.3396    5.0589    0.0000 C   0  0  0  0  0  0  0  0  0  0  0  0
   27.1940    2.8047    0.0000 C   0  0  0  0  0  0  0  0  0  0  0  0
   27.9063    4.1508    0.0000 C   0  0  0  0  0  0  0  0  0  0  0  0
   26.3843    4.0946    0.0000 C   0  0  0  0  0  0  0  0  0  0  0  0
   24.8624    4.0384    0.0000 C   0  0  0  0  0  0  0  0  0  0  0  0
   24.1501    2.6923    0.0000 C   0  0  0  0  0  0  0  0  0  0  0  0
   22.6281    2.6361    0.0000 C   0  0  0  0  0  0  0  0  0  0  0  0
   23.3404    3.9822    0.0000 C   0  0  0  0  0  0  0  0  0  0  0  0
   23.4377    1.3461    0.0000 H   0  0  0  0  0  0  0  0  0  0  0  0
   25.6720    2.7485    0.0000 H   0  0  0  0  0  0  0  0  0  0  0  0
   25.7694    0.1124    0.0000 H   0  0  0  0  0  0  0  0  0  0  0  0
    3.9168   11.8393    0.0000 C   0  0  0  0  0  0  0  0  0  0  0  0
    4.2872   10.3621    0.0000 C   0  0  0  0  0  0  0  0  0  0  0  0
    5.8256   10.3487    0.0000 C   0  0  0  0  0  0  0  0  0  0  0  0
    6.3773   11.7997    0.0000 C   0  0  0  0  0  0  0  0  0  0  0  0
    5.2104   12.7766    0.0000 O   0  0  0  0  0  0  0  0  0  0  0  0
    3.3407    9.1689    0.0000 O   0  0  0  0  0  0  0  0  0  0  0  0
    2.4856   12.3602    0.0000 C   0  0  0  0  0  0  0  0  0  0  0  0
    7.8526   12.1783    0.0000 R#  0  0  0  0  0  0  0  0  0  0  0  0
    1.3190   11.3813    0.0000 O   0  0  0  0  0  0  0  0  0  0  0  0
    0.0000   12.1428    0.0000 R#  0  0  0  0  0  0  0  0  0  0  0  0
    3.3407    7.6459    0.0000 R#  0  0  0  0  0  0  0  0  0  0  0  0
    6.6397    9.0623    0.0000 O   0  0  0  0  0  0  0  0  0  0  0  0
   10.4472    7.7433    0.0000 C   0  0  0  0  0  0  0  0  0  0  0  0
    8.9242    7.7433    0.0000 C   0  0  0  0  0  0  0  0  0  0  0  0
    8.1627    9.0623    0.0000 C   0  0  0  0  0  0  0  0  0  0  0  0
   11.2087    6.4244    0.0000 C   0  0  0  0  0  0  0  0  0  0  0  0
   12.7317    6.4244    0.0000 C   0  0  0  0  0  0  0  0  0  0  0  0
   13.4932    5.1054    0.0000 C   0  0  0  0  0  0  0  0  0  0  0  0
   15.0162    5.1054    0.0000 N   0  0  0  0  0  0  0  0  0  0  0  0
   15.7777    3.7865    0.0000 C   0  0  0  0  0  0  0  0  0  0  0  0
   15.0162    2.4675    0.0000 O   0  0  0  0  0  0  0  0  0  0  0  0
   17.3007    3.7865    0.0000 C   0  0  0  0  0  0  0  0  0  0  0  0
   18.0622    2.4675    0.0000 O   0  0  0  0  0  0  0  0  0  0  0  0
  1  2  1  0  0  0  0
  2  3  1  0  0  0  0
  1  4  1  0  0  0  0
  4  5  1  0  0  0  0
  5  6  2  0  0  0  0
  6  7  1  0  0  0  0
  7  8  1  0  0  0  0
  8  9  1  0  0  0  0
  9 10  1  0  0  0  0
 10 11  1  0  0  0  0
 12 11  1  1  0  0  0
 12 13  1  0  0  0  0
 13 14  1  0  0  0  0
 14 15  1  0  0  0  0
 15 16  1  0  0  0  0
 16 17  1  0  0  0  0
 17 18  1  0  0  0  0
 17 19  1  0  0  0  0
 13 20  1  6  0  0  0
 12 21  1  0  0  0  0
  9 21  1  0  0  0  0
 21 22  1  1  0  0  0
 21 23  1  0  0  0  0
 23 24  1  0  0  0  0
 24 25  1  0  0  0  0
  8 25  1  0  0  0  0
 25 26  1  0  0  0  0
  3 26  1  0  0  0  0
  5 26  1  0  0  0  0
 26 27  1  1  0  0  0
  1 53  1  1  0  0  0
 25 28  1  6  0  0  0
  8 29  1  1  0  0  0
  9 30  1  6  0  0  0
 31 32  1  0  0  0  0
 32 33  1  0  0  0  0
 33 34  1  0  0  0  0
 34 35  1  0  0  0  0
 35 31  1  0  0  0  0
 32 36  1  6  0  0  0
 33 42  1  6  0  0  0
 31 37  1  1  0  0  0
 34 38  1  1  0  0  0
 37 39  1  0  0  0  0
 39 40  1  0  0  0  0
 36 41  1  0  0  0  0
 44 45  1  0  0  0  0
 43 44  1  0  0  0  0
 42 45  1  0  0  0  0
 43 46  1  0  0  0  0
 46 47  1  0  0  0  0
 47 48  1  0  0  0  0
 48 49  1  0  0  0  0
 49 50  1  0  0  0  0
 50 51  2  0  0  0  0
 50 52  1  0  0  0  0
 52 53  1  0  0  0  0
A   38
R3
A   40
R1
A   41
R2
M  END

>  <symbol>
cholmcnC62r

>  <m_abbr>
cholmcnC62r

>  <m_type>
rna

>  <m_subtype>
natural

>  <m_RgroupIdx>
39,40,37

>  <m_Rgroups>
H,H,OH

$$$$

MolEngine07221613482D

 12 13  0  0  0  0            999 V2000
    4.0690    4.2992    0.0000 C   0  0  0  0  0  0  0  0  0  0  0  0
    4.4394    2.8219    0.0000 C   0  0  0  0  0  0  0  0  0  0  0  0
    5.9778    2.8086    0.0000 C   0  0  0  0  0  0  0  0  0  0  0  0
    6.5295    4.2595    0.0000 C   0  0  0  0  0  0  0  0  0  0  0  0
    5.3626    5.2364    0.0000 C   0  0  0  0  0  0  0  0  0  0  0  0
    3.9160    1.5230    0.0000 O   0  0  0  0  0  0  0  0  0  0  0  0
    2.6378    4.8201    0.0000 C   0  0  0  0  0  0  0  0  0  0  0  0
    8.0047    4.6381    0.0000 R#  0  0  0  0  0  0  0  0  0  0  0  0
    1.4711    3.8411    0.0000 O   0  0  0  0  0  0  0  0  0  0  0  0
    0.0000    4.2353    0.0000 R#  0  0  0  0  0  0  0  0  0  0  0  0
    3.9160    0.0000    0.0000 R#  0  0  0  0  0  0  0  0  0  0  0  0
    5.5275    3.6475    0.0000 C   0  0  0  0  0  0  0  0  0  0  0  0
  1  2  1  0  0  0  0
  2  3  1  0  0  0  0
  3  4  1  0  0  0  0
  4  5  1  0  0  0  0
  5  1  1  0  0  0  0
  2  6  1  6  0  0  0
  1  7  1  0  0  0  0
  4  8  1  0  0  0  0
  7  9  1  0  0  0  0
  9 10  1  0  0  0  0
  6 11  1  0  0  0  0
  1 12  1  6  0  0  0
  5 12  1  6  0  0  0
A    8
R3
A   10
R1
A   11
R2
M  END

>  <symbol>
Nmc

>  <m_abbr>
Nmc

>  <m_type>
rna

>  <m_subtype>
natural

>  <m_RgroupIdx>
9,10,7

>  <m_Rgroups>
H,H,OH

$$$$

MolEngine07221613482D

 12 11  0  0  0  0            999 V2000
    3.9523    0.0026    0.0000 C   0  0  0  0  0  0  0  0  0  0  0  0
    5.2667    0.7615    0.0000 O   0  0  0  0  0  0  0  0  0  0  0  0
    6.5811    0.0026    0.0000 C   0  0  0  0  0  0  0  0  0  0  0  0
    7.8955    0.7615    0.0000 C   0  0  0  0  0  0  0  0  0  0  0  0
    9.2098    0.0026    0.0000 O   0  0  0  0  0  0  0  0  0  0  0  0
   10.5242    0.7615    0.0000 C   0  0  0  0  0  0  0  0  0  0  0  0
   11.8386    0.0026    0.0000 C   0  0  0  0  0  0  0  0  0  0  0  0
   13.1530    0.7615    0.0000 O   0  0  0  0  0  0  0  0  0  0  0  0
   14.4673    0.0026    0.0000 R#  0  0  0  0  0  0  0  0  0  0  0  0
    2.6379    0.7615    0.0000 C   0  0  0  0  0  0  0  0  0  0  0  0
    1.3190    0.0000    0.0000 O   0  0  0  0  0  0  0  0  0  0  0  0
    0.0000    0.7615    0.0000 R#  0  0  0  0  0  0  0  0  0  0  0  0
  1  2  1  0  0  0  0
  2  3  1  0  0  0  0
  3  4  1  0  0  0  0
  4  5  1  0  0  0  0
  5  6  1  0  0  0  0
  6  7  1  0  0  0  0
  7  8  1  0  0  0  0
  8  9  1  0  0  0  0
 10  1  1  0  0  0  0
 10 11  1  0  0  0  0
 11 12  1  0  0  0  0
A    9
R2
A   12
R1
M  END

>  <symbol>
Sp9

>  <m_abbr>
Sp9

>  <m_type>
rna

>  <m_subtype>
natural

>  <m_RgroupIdx>
11,8

>  <m_Rgroups>
H,H

$$$$

MolEngine07221613482D

 11 11  0  0  0  0            999 V2000
    4.0257    4.2360    0.0000 C   0  0  0  0  0  0  0  0  0  0  0  0
    4.4300    2.7692    0.0000 C   0  0  0  0  0  0  0  0  0  0  0  0
    5.9665    2.7915    0.0000 C   0  0  0  0  0  0  0  0  0  0  0  0
    6.4840    4.2533    0.0000 C   0  0  0  0  0  0  0  0  0  0  0  0
    5.2976    5.2011    0.0000 O   0  0  0  0  0  0  0  0  0  0  0  0
    6.8124    1.5230    0.0000 O   0  0  0  0  0  0  0  0  0  0  0  0
    2.5847    4.7229    0.0000 C   0  0  0  0  0  0  0  0  0  0  0  0
    7.9483    4.6654    0.0000 R#  0  0  0  0  0  0  0  0  0  0  0  0
    1.4445    3.7132    0.0000 O   0  0  0  0  0  0  0  0  0  0  0  0
    0.0000    4.1957    0.0000 R#  0  0  0  0  0  0  0  0  0  0  0  0
    6.8124    0.0000    0.0000 R#  0  0  0  0  0  0  0  0  0  0  0  0
  1  2  1  0  0  0  0
  3  4  1  0  0  0  0
  4  5  1  0  0  0  0
  1  5  1  0  0  0  0
  3  6  1  6  0  0  0
  1  7  1  1  0  0  0
  4  8  1  1  0  0  0
  7  9  1  0  0  0  0
  3  2  1  0  0  0  0
  9 10  1  0  0  0  0
  6 11  1  0  0  0  0
A    8
R3
A   10
R1
A   11
R2
M  END

>  <symbol>
25d3r

>  <m_abbr>
25d3r

>  <m_type>
rna

>  <m_subtype>
natural

>  <m_RgroupIdx>
9,10,7

>  <m_Rgroups>
H,H,OH

$$$$

MolEngine07221613482D

 17 17  0  0  0  0            999 V2000
    4.4548    6.2130    0.0000 O   0  0  0  0  0  0  0  0  0  0  0  0
    3.2280    5.3105    0.0000 C   0  0  0  0  0  0  0  0  0  0  0  0
    5.6922    5.3251    0.0000 C   0  0  0  0  0  0  0  0  0  0  0  0
    3.7072    3.8648    0.0000 C   0  0  0  0  0  0  0  0  0  0  0  0
    5.2301    3.8739    0.0000 C   0  0  0  0  0  0  0  0  0  0  0  0
    2.8193    2.6274    0.0000 O   0  0  0  0  0  0  0  0  0  0  0  0
    1.7768    5.7725    0.0000 C   0  0  0  0  0  0  0  0  0  0  0  0
    1.4513    7.2603    0.0000 O   0  0  0  0  0  0  0  0  0  0  0  0
    0.0000    7.7223    0.0000 R#  0  0  0  0  0  0  0  0  0  0  0  0
    7.1378    5.8043    0.0000 R#  0  0  0  0  0  0  0  0  0  0  0  0
    6.1326    2.6471    0.0000 O   0  0  0  0  0  0  0  0  0  0  0  0
    2.8193    1.0991    0.0000 R#  0  0  0  0  0  0  0  0  0  0  0  0
    7.6609    2.6471    0.0000 C   0  0  0  0  0  0  0  0  0  0  0  0
    8.4251    1.3236    0.0000 C   0  0  0  0  0  0  0  0  0  0  0  0
    9.9534    1.3236    0.0000 S   0  0  0  0  0  0  0  0  0  0  0  0
   10.7175    0.0000    0.0000 C   0  0  0  0  0  0  0  0  0  0  0  0
   10.7175    2.6471    0.0000 O   0  0  0  0  0  0  0  0  0  0  0  0
  1  2  1  0  0  0  0
  1  3  1  0  0  0  0
  2  4  1  0  0  0  0
  2  7  1  1  0  0  0
  3  5  1  0  0  0  0
  4  5  1  0  0  0  0
  4  6  1  6  0  0  0
  7  8  1  0  0  0  0
  8  9  1  0  0  0  0
  3 10  1  1  0  0  0
  5 11  1  6  0  0  0
  6 12  1  0  0  0  0
 11 13  1  0  0  0  0
 13 14  1  0  0  0  0
 14 15  1  0  0  0  0
 15 16  1  0  0  0  0
 15 17  2  0  0  0  0
A    9
R1
A   10
R3
A   12
R2
M  END

>  <symbol>
msoe2r

>  <m_abbr>
msoe2r

>  <m_type>
rna

>  <m_subtype>
natural

>  <m_RgroupIdx>
8,11,9

>  <m_Rgroups>
H,H,OH

$$$$

MolEngine07221613482D

 21 20  0  0  0  0            999 V2000
    3.9660    0.0027    0.0000 C   0  0  0  0  0  0  0  0  0  0  0  0
    5.2850    0.7642    0.0000 O   0  0  0  0  0  0  0  0  0  0  0  0
    6.6039    0.0027    0.0000 C   0  0  0  0  0  0  0  0  0  0  0  0
    7.9229    0.7642    0.0000 C   0  0  0  0  0  0  0  0  0  0  0  0
    9.2419    0.0027    0.0000 O   0  0  0  0  0  0  0  0  0  0  0  0
   10.5608    0.7642    0.0000 C   0  0  0  0  0  0  0  0  0  0  0  0
   11.8798    0.0027    0.0000 C   0  0  0  0  0  0  0  0  0  0  0  0
   13.1987    0.7642    0.0000 O   0  0  0  0  0  0  0  0  0  0  0  0
   14.5177    0.0027    0.0000 C   0  0  0  0  0  0  0  0  0  0  0  0
   15.8366    0.7642    0.0000 C   0  0  0  0  0  0  0  0  0  0  0  0
   17.1556    0.0027    0.0000 O   0  0  0  0  0  0  0  0  0  0  0  0
   18.4746    0.7642    0.0000 C   0  0  0  0  0  0  0  0  0  0  0  0
   19.7935    0.0027    0.0000 C   0  0  0  0  0  0  0  0  0  0  0  0
   21.1125    0.7642    0.0000 O   0  0  0  0  0  0  0  0  0  0  0  0
   22.4314    0.0027    0.0000 C   0  0  0  0  0  0  0  0  0  0  0  0
   23.7504    0.7642    0.0000 C   0  0  0  0  0  0  0  0  0  0  0  0
   25.0693    0.0027    0.0000 O   0  0  0  0  0  0  0  0  0  0  0  0
   26.3883    0.7642    0.0000 R#  0  0  0  0  0  0  0  0  0  0  0  0
    2.6471    0.7642    0.0000 C   0  0  0  0  0  0  0  0  0  0  0  0
    1.3235    0.0000    0.0000 O   0  0  0  0  0  0  0  0  0  0  0  0
    0.0000    0.7642    0.0000 R#  0  0  0  0  0  0  0  0  0  0  0  0
  1  2  1  0  0  0  0
  2  3  1  0  0  0  0
  3  4  1  0  0  0  0
  4  5  1  0  0  0  0
  5  6  1  0  0  0  0
  6  7  1  0  0  0  0
  7  8  1  0  0  0  0
  8  9  1  0  0  0  0
  9 10  1  0  0  0  0
 10 11  1  0  0  0  0
 11 12  1  0  0  0  0
 12 13  1  0  0  0  0
 13 14  1  0  0  0  0
 14 15  1  0  0  0  0
 15 16  1  0  0  0  0
 16 17  1  0  0  0  0
 17 18  1  0  0  0  0
 19  1  1  0  0  0  0
 19 20  1  0  0  0  0
 20 21  1  0  0  0  0
A   18
R2
A   21
R1
M  END

>  <symbol>
Sp18

>  <m_abbr>
Sp18

>  <m_type>
rna

>  <m_subtype>
natural

>  <m_RgroupIdx>
20,17

>  <m_Rgroups>
H,H

$$$$

MolEngine07221613482D

 12 12  0  0  0  0            999 V2000
    3.9168    4.1934    0.0000 C   0  0  0  0  0  0  0  0  0  0  0  0
    4.2872    2.7161    0.0000 C   0  0  0  0  0  0  0  0  0  0  0  0
    5.8256    2.7028    0.0000 C   0  0  0  0  0  0  0  0  0  0  0  0
    6.3774    4.1537    0.0000 C   0  0  0  0  0  0  0  0  0  0  0  0
    5.2105    5.1307    0.0000 O   0  0  0  0  0  0  0  0  0  0  0  0
    3.3407    1.5230    0.0000 O   0  0  0  0  0  0  0  0  0  0  0  0
    2.4857    4.7143    0.0000 C   0  0  0  0  0  0  0  0  0  0  0  0
    7.8526    4.5323    0.0000 R#  0  0  0  0  0  0  0  0  0  0  0  0
    1.3190    3.7353    0.0000 O   0  0  0  0  0  0  0  0  0  0  0  0
    0.0000    4.4968    0.0000 R#  0  0  0  0  0  0  0  0  0  0  0  0
    3.3407    0.0000    0.0000 R#  0  0  0  0  0  0  0  0  0  0  0  0
    6.6397    1.4163    0.0000 N   0  0  0  0  0  0  0  0  0  0  0  0
  1  2  1  0  0  0  0
  2  3  1  0  0  0  0
  3  4  1  0  0  0  0
  4  5  1  0  0  0  0
  5  1  1  0  0  0  0
  2  6  1  6  0  0  0
  3 12  1  6  0  0  0
  1  7  1  1  0  0  0
  4  8  1  1  0  0  0
  7  9  1  0  0  0  0
  9 10  1  0  0  0  0
  6 11  1  0  0  0  0
A    8
R3
A   10
R1
A   11
R2
M  END

>  <symbol>
n2r

>  <m_abbr>
n2r

>  <m_type>
rna

>  <m_subtype>
natural

>  <m_RgroupIdx>
9,10,7

>  <m_Rgroups>
H,H,OH

$$$$

MolEngine07221613482D

 15 14  0  0  0  0            999 V2000
    1.3235    0.7641    0.0000 O   0  0  0  0  0  0  0  0  0  0  0  0
    2.6425    0.0026    0.0000 C   0  0  0  0  0  0  0  0  0  0  0  0
    3.9614    0.7641    0.0000 C   0  0  0  0  0  0  0  0  0  0  0  0
    5.2804    0.0026    0.0000 C   0  0  0  0  0  0  0  0  0  0  0  0
    6.5993    0.7641    0.0000 C   0  0  0  0  0  0  0  0  0  0  0  0
    7.9183    0.0026    0.0000 C   0  0  0  0  0  0  0  0  0  0  0  0
    9.2372    0.7641    0.0000 C   0  0  0  0  0  0  0  0  0  0  0  0
   10.5562    0.0026    0.0000 C   0  0  0  0  0  0  0  0  0  0  0  0
   11.8752    0.7641    0.0000 C   0  0  0  0  0  0  0  0  0  0  0  0
   13.1941    0.0026    0.0000 C   0  0  0  0  0  0  0  0  0  0  0  0
   14.5131    0.7641    0.0000 C   0  0  0  0  0  0  0  0  0  0  0  0
   15.8320    0.0026    0.0000 C   0  0  0  0  0  0  0  0  0  0  0  0
   17.1510    0.7641    0.0000 O   0  0  0  0  0  0  0  0  0  0  0  0
    0.0000    0.0000    0.0000 R#  0  0  0  0  0  0  0  0  0  0  0  0
   18.4699    0.0026    0.0000 R#  0  0  0  0  0  0  0  0  0  0  0  0
  3  2  1  0  0  0  0
  4  3  1  0  0  0  0
  5  4  1  0  0  0  0
  6  5  1  0  0  0  0
  7  6  1  0  0  0  0
  8  7  1  0  0  0  0
  9  8  1  0  0  0  0
 10  9  1  0  0  0  0
 11 10  1  0  0  0  0
 12 11  1  0  0  0  0
 13 12  1  0  0  0  0
  1 14  1  0  0  0  0
 13 15  1  0  0  0  0
  1  2  1  0  0  0  0
A   14
R1
A   15
R2
M  END

>  <symbol>
oC11o

>  <m_abbr>
oC11o

>  <m_type>
rna

>  <m_subtype>
natural

>  <m_RgroupIdx>
13,14

>  <m_Rgroups>
H,H

$$$$

MolEngine07221613482D

 11 10  0  0  0  0            999 V2000
    1.3190    0.7615    0.0000 O   0  0  0  0  0  0  0  0  0  0  0  0
    2.6379    0.0000    0.0000 C   0  0  0  0  0  0  0  0  0  0  0  0
    3.9569    0.7615    0.0000 C   0  0  0  0  0  0  0  0  0  0  0  0
    5.2758    0.0000    0.0000 C   0  0  0  0  0  0  0  0  0  0  0  0
    6.5948    0.7615    0.0000 C   0  0  0  0  0  0  0  0  0  0  0  0
    7.9137    0.0000    0.0000 C   0  0  0  0  0  0  0  0  0  0  0  0
    9.2327    0.7615    0.0000 C   0  0  0  0  0  0  0  0  0  0  0  0
   10.5517    0.0000    0.0000 C   0  0  0  0  0  0  0  0  0  0  0  0
   11.8706    0.7615    0.0000 O   0  0  0  0  0  0  0  0  0  0  0  0
    0.0000    0.0000    0.0000 R#  0  0  0  0  0  0  0  0  0  0  0  0
   13.1896    0.0000    0.0000 R#  0  0  0  0  0  0  0  0  0  0  0  0
  3  2  1  0  0  0  0
  4  3  1  0  0  0  0
  5  4  1  0  0  0  0
  6  5  1  0  0  0  0
  7  6  1  0  0  0  0
  8  7  1  0  0  0  0
  9  8  1  0  0  0  0
  1 10  1  0  0  0  0
  9 11  1  0  0  0  0
  1  2  1  0  0  0  0
A   10
R1
A   11
R2
M  END

>  <symbol>
oC7o

>  <m_abbr>
oC7o

>  <m_type>
rna

>  <m_subtype>
natural

>  <m_RgroupIdx>
9,10

>  <m_Rgroups>
H,H

$$$$

MolEngine07221613482D

  9  8  0  0  0  0            999 V2000
    1.3144    0.7589    0.0000 O   0  0  0  0  0  0  0  0  0  0  0  0
    2.6288    0.0000    0.0000 C   0  0  0  0  0  0  0  0  0  0  0  0
    3.9431    0.7589    0.0000 C   0  0  0  0  0  0  0  0  0  0  0  0
    5.2575    0.0000    0.0000 C   0  0  0  0  0  0  0  0  0  0  0  0
    6.5719    0.7589    0.0000 C   0  0  0  0  0  0  0  0  0  0  0  0
    7.8863    0.0000    0.0000 C   0  0  0  0  0  0  0  0  0  0  0  0
    9.2006    0.7589    0.0000 O   0  0  0  0  0  0  0  0  0  0  0  0
    0.0000    0.0000    0.0000 R#  0  0  0  0  0  0  0  0  0  0  0  0
   10.5150    0.0000    0.0000 R#  0  0  0  0  0  0  0  0  0  0  0  0
  3  2  1  0  0  0  0
  4  3  1  0  0  0  0
  5  4  1  0  0  0  0
  6  5  1  0  0  0  0
  7  6  1  0  0  0  0
  1  8  1  0  0  0  0
  7  9  1  0  0  0  0
  1  2  1  0  0  0  0
A    8
R1
A    9
R2
M  END

>  <symbol>
oC5o

>  <m_abbr>
oC5o

>  <m_type>
rna

>  <m_subtype>
natural

>  <m_RgroupIdx>
7,8

>  <m_Rgroups>
H,H

$$$$

MolEngine07221613482D

  8  7  0  0  0  0            999 V2000
    1.3236    0.0000    0.0000 O   0  0  0  0  0  0  0  0  0  0  0  0
    2.6425    0.7615    0.0000 C   0  0  0  0  0  0  0  0  0  0  0  0
    3.9615    0.0000    0.0000 C   0  0  0  0  0  0  0  0  0  0  0  0
    5.2804    0.7615    0.0000 C   0  0  0  0  0  0  0  0  0  0  0  0
    6.5994    0.0000    0.0000 C   0  0  0  0  0  0  0  0  0  0  0  0
    7.9183    0.7615    0.0000 O   0  0  0  0  0  0  0  0  0  0  0  0
    0.0000    0.7641    0.0000 R#  0  0  0  0  0  0  0  0  0  0  0  0
    9.2373    0.0000    0.0000 R#  0  0  0  0  0  0  0  0  0  0  0  0
  3  2  1  0  0  0  0
  4  3  1  0  0  0  0
  5  4  1  0  0  0  0
  6  5  1  0  0  0  0
  1  7  1  0  0  0  0
  6  8  1  0  0  0  0
  1  2  1  0  0  0  0
A    7
R1
A    8
R2
M  END

>  <symbol>
oC4o

>  <m_abbr>
oC4o

>  <m_type>
rna

>  <m_subtype>
natural

>  <m_RgroupIdx>
6,7

>  <m_Rgroups>
H,H

$$$$

MolEngine07221613482D

 10  9  0  0  0  0            999 V2000
    3.9168    4.1935    0.0000 C   0  0  0  0  0  0  0  0  0  0  0  0
    4.2872    2.7162    0.0000 C   0  0  0  0  0  0  0  0  0  0  0  0
    6.3773    4.1538    0.0000 C   0  0  0  0  0  0  0  0  0  0  0  0
    5.2104    5.1307    0.0000 O   0  0  0  0  0  0  0  0  0  0  0  0
    3.3407    1.5230    0.0000 O   0  0  0  0  0  0  0  0  0  0  0  0
    2.4856    4.7144    0.0000 C   0  0  0  0  0  0  0  0  0  0  0  0
    7.8525    4.5324    0.0000 R#  0  0  0  0  0  0  0  0  0  0  0  0
    1.3189    3.7354    0.0000 O   0  0  0  0  0  0  0  0  0  0  0  0
    0.0000    4.4969    0.0000 R#  0  0  0  0  0  0  0  0  0  0  0  0
    3.3407    0.0000    0.0000 R#  0  0  0  0  0  0  0  0  0  0  0  0
  1  2  1  0  0  0  0
  3  4  1  0  0  0  0
  4  1  1  0  0  0  0
  2  5  1  0  0  0  0
  1  6  1  1  0  0  0
  3  7  1  0  0  0  0
  6  8  1  0  0  0  0
  8  9  1  0  0  0  0
  5 10  1  0  0  0  0
A    7
R3
A    9
R1
A   10
R2
M  END

>  <symbol>
dhp

>  <m_abbr>
dhp

>  <m_type>
rna

>  <m_subtype>
natural

>  <m_RgroupIdx>
8,9,6

>  <m_Rgroups>
H,H,OH

$$$$

MolEngine07221613482D

 12 13  0  0  0  0            999 V2000
    3.9168    4.1935    0.0000 C   0  0  0  0  0  0  0  0  0  0  0  0
    4.2872    2.7162    0.0000 C   0  0  0  0  0  0  0  0  0  0  0  0
    5.8256    2.7028    0.0000 C   0  0  0  0  0  0  0  0  0  0  0  0
    6.3774    4.1538    0.0000 C   0  0  0  0  0  0  0  0  0  0  0  0
    5.2105    5.1307    0.0000 C   0  0  0  0  0  0  0  0  0  0  0  0
    3.3407    1.5230    0.0000 O   0  0  0  0  0  0  0  0  0  0  0  0
    2.4856    4.7143    0.0000 C   0  0  0  0  0  0  0  0  0  0  0  0
    7.8526    4.5324    0.0000 R#  0  0  0  0  0  0  0  0  0  0  0  0
    1.3190    3.7354    0.0000 O   0  0  0  0  0  0  0  0  0  0  0  0
    0.0000    4.4969    0.0000 R#  0  0  0  0  0  0  0  0  0  0  0  0
    3.3407    0.0000    0.0000 R#  0  0  0  0  0  0  0  0  0  0  0  0
    5.2105    3.6077    0.0000 C   0  0  0  0  0  0  0  0  0  0  0  0
  1  2  1  0  0  0  0
  2  3  1  0  0  0  0
  3  4  1  0  0  0  0
  4  5  1  0  0  0  0
  5  1  1  0  0  0  0
  2  6  1  6  0  0  0
  1  7  1  1  0  0  0
  4  8  1  1  0  0  0
  7  9  1  0  0  0  0
  9 10  1  0  0  0  0
  6 11  1  0  0  0  0
  5 12  1  6  0  0  0
  4 12  1  6  0  0  0
A    8
R3
A   10
R1
A   11
R2
M  END

>  <symbol>
Smc

>  <m_abbr>
Smc

>  <m_type>
rna

>  <m_subtype>
natural

>  <m_RgroupIdx>
9,10,7

>  <m_Rgroups>
H,H,OH

$$$$

MolEngine07221613482D

  7  6  0  0  0  0            999 V2000
    1.3235    0.7642    0.0000 O   0  0  0  0  0  0  0  0  0  0  0  0
    2.6425    0.0027    0.0000 C   0  0  0  0  0  0  0  0  0  0  0  0
    3.9614    0.7642    0.0000 C   0  0  0  0  0  0  0  0  0  0  0  0
    5.2804    0.0027    0.0000 C   0  0  0  0  0  0  0  0  0  0  0  0
    6.5993    0.7642    0.0000 O   0  0  0  0  0  0  0  0  0  0  0  0
    0.0000    0.0000    0.0000 R#  0  0  0  0  0  0  0  0  0  0  0  0
    7.9183    0.0027    0.0000 R#  0  0  0  0  0  0  0  0  0  0  0  0
  3  2  1  0  0  0  0
  4  3  1  0  0  0  0
  5  4  1  0  0  0  0
  1  6  1  0  0  0  0
  5  7  1  0  0  0  0
  1  2  1  0  0  0  0
A    6
R1
A    7
R2
M  END

>  <symbol>
SpC3

>  <m_abbr>
SpC3

>  <m_type>
rna

>  <m_subtype>
natural

>  <m_RgroupIdx>
5,6

>  <m_Rgroups>
H,H

$$$$

MolEngine07221613482D

 10  9  0  0  0  0            999 V2000
    7.9321    0.0053    0.0000 C   0  0  0  0  0  0  0  0  0  0  0  0
    9.2511    0.7668    0.0000 C   0  0  0  0  0  0  0  0  0  0  0  0
   10.5701    0.0053    0.0000 O   0  0  0  0  0  0  0  0  0  0  0  0
   11.8890    0.7668    0.0000 R#  0  0  0  0  0  0  0  0  0  0  0  0
    1.3236    0.7641    0.0000 O   0  0  0  0  0  0  0  0  0  0  0  0
    2.6425    0.0026    0.0000 C   0  0  0  0  0  0  0  0  0  0  0  0
    0.0000    0.0000    0.0000 R#  0  0  0  0  0  0  0  0  0  0  0  0
    3.9661    0.7668    0.0000 C   0  0  0  0  0  0  0  0  0  0  0  0
    5.2896    0.0026    0.0000 C   0  0  0  0  0  0  0  0  0  0  0  0
    6.6132    0.7668    0.0000 C   0  0  0  0  0  0  0  0  0  0  0  0
  1 10  1  0  0  0  0
  2  1  1  0  0  0  0
  3  2  1  0  0  0  0
  3  4  1  0  0  0  0
  5  7  1  0  0  0  0
  5  6  1  0  0  0  0
  6  8  1  0  0  0  0
  8  9  1  0  0  0  0
  9 10  1  0  0  0  0
A    4
R2
A    7
R1
M  END

>  <symbol>
oC6o

>  <m_abbr>
oC6o

>  <m_type>
rna

>  <m_subtype>
natural

>  <m_RgroupIdx>
6,3

>  <m_Rgroups>
H,H

$$$$

MolEngine07221613482D

 13 13  0  0  0  0            999 V2000
    3.9168    4.1935    0.0000 C   0  0  0  0  0  0  0  0  0  0  0  0
    4.2872    2.7162    0.0000 C   0  0  0  0  0  0  0  0  0  0  0  0
    5.8256    2.7028    0.0000 C   0  0  0  0  0  0  0  0  0  0  0  0
    6.3774    4.1538    0.0000 C   0  0  0  0  0  0  0  0  0  0  0  0
    5.2105    5.1307    0.0000 O   0  0  0  0  0  0  0  0  0  0  0  0
    3.3407    1.5230    0.0000 O   0  0  0  0  0  0  0  0  0  0  0  0
    2.4857    4.7144    0.0000 C   0  0  0  0  0  0  0  0  0  0  0  0
    7.8526    4.5324    0.0000 R#  0  0  0  0  0  0  0  0  0  0  0  0
    1.3190    3.7354    0.0000 O   0  0  0  0  0  0  0  0  0  0  0  0
    0.0000    4.4969    0.0000 R#  0  0  0  0  0  0  0  0  0  0  0  0
    3.3407    0.0000    0.0000 R#  0  0  0  0  0  0  0  0  0  0  0  0
    6.6397    1.4164    0.0000 O   0  0  0  0  0  0  0  0  0  0  0  0
    7.2967    3.0970    0.0000 C   0  0  0  0  0  0  0  0  0  0  0  0
  1  2  1  0  0  0  0
  2  3  1  0  0  0  0
  3  4  1  0  0  0  0
  4  5  1  0  0  0  0
  5  1  1  0  0  0  0
  2  6  1  6  0  0  0
  3 12  1  6  0  0  0
  1  7  1  1  0  0  0
  4  8  1  1  0  0  0
  7  9  1  0  0  0  0
  9 10  1  0  0  0  0
  6 11  1  0  0  0  0
  3 13  1  1  0  0  0
A    8
R3
A   10
R1
A   11
R2
M  END

>  <symbol>
Bcm2r

>  <m_abbr>
Bcm2r

>  <m_type>
rna

>  <m_subtype>
natural

>  <m_RgroupIdx>
9,10,7

>  <m_Rgroups>
H,H,OH

$$$$

MolEngine07221613482D

 55 59  0  0  0  0            999 V2000
    7.0073   13.3207    0.0000 C   0  0  0  0  0  0  0  0  0  0  0  0
    8.4970   13.0041    0.0000 C   0  0  0  0  0  0  0  0  0  0  0  0
    8.9677   11.5556    0.0000 N   0  0  0  0  0  0  0  0  0  0  0  0
   10.4574   11.2390    0.0000 C   0  0  0  0  0  0  0  0  0  0  0  0
   10.9281    9.7905    0.0000 C   0  0  0  0  0  0  0  0  0  0  0  0
   12.4178    9.4739    0.0000 C   0  0  0  0  0  0  0  0  0  0  0  0
    9.5161   14.1359    0.0000 O   0  0  0  0  0  0  0  0  0  0  0  0
   12.8885    8.0255    0.0000 C   0  0  0  0  0  0  0  0  0  0  0  0
   14.3782    7.7088    0.0000 N   0  0  0  0  0  0  0  0  0  0  0  0
   14.8488    6.2604    0.0000 C   0  0  0  0  0  0  0  0  0  0  0  0
   13.8298    5.1286    0.0000 O   0  0  0  0  0  0  0  0  0  0  0  0
   16.3386    5.9438    0.0000 C   0  0  0  0  0  0  0  0  0  0  0  0
   18.2989    4.1787    0.0000 C   0  0  0  0  0  0  0  0  0  0  0  0
   19.3180    5.3106    0.0000 C   0  0  0  0  0  0  0  0  0  0  0  0
   20.8076    4.9941    0.0000 C   0  0  0  0  0  0  0  0  0  0  0  0
   18.7696    2.7304    0.0000 C   0  0  0  0  0  0  0  0  0  0  0  0
   20.2593    2.4137    0.0000 C   0  0  0  0  0  0  0  0  0  0  0  0
   20.7300    0.9653    0.0000 C   0  0  0  0  0  0  0  0  0  0  0  0
   22.2197    0.6488    0.0000 C   0  0  0  0  0  0  0  0  0  0  0  0
   23.2387    1.7806    0.0000 C   0  0  0  0  0  0  0  0  0  0  0  0
   24.7285    1.4640    0.0000 C   0  0  0  0  0  0  0  0  0  0  0  0
   25.4901    0.1451    0.0000 C   0  0  0  0  0  0  0  0  0  0  0  0
   26.9798    0.4617    0.0000 C   0  0  0  0  0  0  0  0  0  0  0  0
   27.1389    1.9765    0.0000 C   0  0  0  0  0  0  0  0  0  0  0  0
   28.4579    2.7380    0.0000 C   0  0  0  0  0  0  0  0  0  0  0  0
   29.7769    1.9765    0.0000 C   0  0  0  0  0  0  0  0  0  0  0  0
   31.0958    2.7380    0.0000 C   0  0  0  0  0  0  0  0  0  0  0  0
   32.4148    1.9765    0.0000 C   0  0  0  0  0  0  0  0  0  0  0  0
   33.7337    2.7380    0.0000 C   0  0  0  0  0  0  0  0  0  0  0  0
   35.0527    1.9765    0.0000 C   0  0  0  0  0  0  0  0  0  0  0  0
   33.7337    4.2611    0.0000 C   0  0  0  0  0  0  0  0  0  0  0  0
   28.4579    4.2611    0.0000 C   0  0  0  0  0  0  0  0  0  0  0  0
   25.7475    2.5958    0.0000 C   0  0  0  0  0  0  0  0  0  0  0  0
   26.8793    3.6150    0.0000 C   0  0  0  0  0  0  0  0  0  0  0  0
   25.2768    4.0443    0.0000 C   0  0  0  0  0  0  0  0  0  0  0  0
   23.7872    4.3608    0.0000 C   0  0  0  0  0  0  0  0  0  0  0  0
   22.7681    3.2290    0.0000 C   0  0  0  0  0  0  0  0  0  0  0  0
   21.2784    3.5456    0.0000 C   0  0  0  0  0  0  0  0  0  0  0  0
   21.8488    4.9577    0.0000 C   0  0  0  0  0  0  0  0  0  0  0  0
   16.8092    4.4953    0.0000 O   0  0  0  0  0  0  0  0  0  0  0  0
   22.8212    4.7511    0.0000 H   0  0  0  0  0  0  0  0  0  0  0  0
   23.1856    0.2585    0.0000 H   0  0  0  0  0  0  0  0  0  0  0  0
   24.3088    0.0000    0.0000 H   0  0  0  0  0  0  0  0  0  0  0  0
    4.1099   16.0055    0.0000 C   0  0  0  0  0  0  0  0  0  0  0  0
    5.6382   16.0055    0.0000 C   0  0  0  0  0  0  0  0  0  0  0  0
    6.1106   17.4589    0.0000 C   0  0  0  0  0  0  0  0  0  0  0  0
    4.8740   18.3572    0.0000 O   0  0  0  0  0  0  0  0  0  0  0  0
    3.6377   17.4589    0.0000 C   0  0  0  0  0  0  0  0  0  0  0  0
    7.1911   18.5397    0.0000 R#  0  0  0  0  0  0  0  0  0  0  0  0
    2.5569   18.5397    0.0000 C   0  0  0  0  0  0  0  0  0  0  0  0
    3.2116   14.7691    0.0000 O   0  0  0  0  0  0  0  0  0  0  0  0
    6.5366   14.7691    0.0000 O   0  0  0  0  0  0  0  0  0  0  0  0
    1.0807   18.1441    0.0000 O   0  0  0  0  0  0  0  0  0  0  0  0
    3.2116   13.2408    0.0000 R#  0  0  0  0  0  0  0  0  0  0  0  0
    0.0000   19.2248    0.0000 R#  0  0  0  0  0  0  0  0  0  0  0  0
 52  1  1  0  0  0  0
  1  2  1  0  0  0  0
  2  3  1  0  0  0  0
  3  4  1  0  0  0  0
  4  5  1  0  0  0  0
  5  6  1  0  0  0  0
  2  7  2  0  0  0  0
  6  8  1  0  0  0  0
  8  9  1  0  0  0  0
  9 10  1  0  0  0  0
 10 11  2  0  0  0  0
 10 12  1  0  0  0  0
 13 14  1  0  0  0  0
 14 15  1  0  0  0  0
 13 16  1  0  0  0  0
 16 17  1  0  0  0  0
 17 18  2  0  0  0  0
 18 19  1  0  0  0  0
 19 20  1  0  0  0  0
 20 21  1  0  0  0  0
 21 22  1  0  0  0  0
 22 23  1  0  0  0  0
 24 23  1  1  0  0  0
 24 25  1  0  0  0  0
 25 26  1  0  0  0  0
 26 27  1  0  0  0  0
 27 28  1  0  0  0  0
 28 29  1  0  0  0  0
 29 30  1  0  0  0  0
 29 31  1  0  0  0  0
 25 32  1  6  0  0  0
 24 33  1  0  0  0  0
 21 33  1  0  0  0  0
 33 34  1  1  0  0  0
 33 35  1  0  0  0  0
 35 36  1  0  0  0  0
 36 37  1  0  0  0  0
 20 37  1  0  0  0  0
 37 38  1  0  0  0  0
 15 38  1  0  0  0  0
 17 38  1  0  0  0  0
 38 39  1  1  0  0  0
 13 40  1  0  0  0  0
 37 41  1  6  0  0  0
 20 42  1  1  0  0  0
 21 43  1  6  0  0  0
 12 40  1  0  0  0  0
 44 45  1  0  0  0  0
 45 46  1  0  0  0  0
 46 47  1  0  0  0  0
 47 48  1  0  0  0  0
 48 44  1  0  0  0  0
 46 49  1  1  0  0  0
 48 50  1  1  0  0  0
 44 51  1  6  0  0  0
 45 52  1  6  0  0  0
 50 53  1  0  0  0  0
 51 54  1  0  0  0  0
 53 55  1  0  0  0  0
A   49
R3
A   54
R1
A   55
R2
M  END

>  <symbol>
cholmcaba2r

>  <m_abbr>
cholmcaba2r

>  <m_type>
rna

>  <m_subtype>
natural

>  <m_RgroupIdx>
53,54,48

>  <m_Rgroups>
H,H,OH

$$$$

MolEngine07221613482D

 38 38  0  0  0  0            999 V2000
    4.0960   13.6238    0.0000 C   0  0  0  0  0  0  0  0  0  0  0  0
    5.6191   13.6238    0.0000 C   0  0  0  0  0  0  0  0  0  0  0  0
    6.0850   15.0572    0.0000 C   0  0  0  0  0  0  0  0  0  0  0  0
    4.8576   15.9677    0.0000 O   0  0  0  0  0  0  0  0  0  0  0  0
    3.6254   15.0724    0.0000 C   0  0  0  0  0  0  0  0  0  0  0  0
    7.1668   16.1495    0.0000 R#  0  0  0  0  0  0  0  0  0  0  0  0
    2.5483   16.1495    0.0000 C   0  0  0  0  0  0  0  0  0  0  0  0
    3.2007   12.3917    0.0000 O   0  0  0  0  0  0  0  0  0  0  0  0
    6.5146   12.3917    0.0000 O   0  0  0  0  0  0  0  0  0  0  0  0
    8.0292   12.5508    0.0000 C   0  0  0  0  0  0  0  0  0  0  0  0
    8.9247   11.3184    0.0000 C   0  0  0  0  0  0  0  0  0  0  0  0
   10.4393   11.4778    0.0000 N   0  0  0  0  0  0  0  0  0  0  0  0
   11.3348   10.2454    0.0000 C   0  0  0  0  0  0  0  0  0  0  0  0
   12.8496   10.4047    0.0000 C   0  0  0  0  0  0  0  0  0  0  0  0
   13.7448    9.1724    0.0000 C   0  0  0  0  0  0  0  0  0  0  0  0
   15.2542    9.3309    0.0000 C   0  0  0  0  0  0  0  0  0  0  0  0
    8.3051    9.9271    0.0000 O   0  0  0  0  0  0  0  0  0  0  0  0
    1.0770   15.7553    0.0000 O   0  0  0  0  0  0  0  0  0  0  0  0
    3.2007   10.8685    0.0000 R#  0  0  0  0  0  0  0  0  0  0  0  0
    0.0000   16.8323    0.0000 R#  0  0  0  0  0  0  0  0  0  0  0  0
   16.1463    8.1030    0.0000 N   0  0  0  0  0  0  0  0  0  0  0  0
   17.6557    8.2615    0.0000 C   0  0  0  0  0  0  0  0  0  0  0  0
   18.2731    9.6480    0.0000 O   0  0  0  0  0  0  0  0  0  0  0  0
   18.5477    7.0336    0.0000 C   0  0  0  0  0  0  0  0  0  0  0  0
   20.0571    7.1922    0.0000 C   0  0  0  0  0  0  0  0  0  0  0  0
   20.9491    5.9643    0.0000 C   0  0  0  0  0  0  0  0  0  0  0  0
   22.4585    6.1228    0.0000 C   0  0  0  0  0  0  0  0  0  0  0  0
   23.3505    4.8949    0.0000 C   0  0  0  0  0  0  0  0  0  0  0  0
   24.8599    5.0534    0.0000 C   0  0  0  0  0  0  0  0  0  0  0  0
   25.7519    3.8255    0.0000 C   0  0  0  0  0  0  0  0  0  0  0  0
   27.2613    3.9841    0.0000 C   0  0  0  0  0  0  0  0  0  0  0  0
   28.6478    3.3667    0.0000 C   0  0  0  0  0  0  0  0  0  0  0  0
   29.5398    2.1387    0.0000 C   0  0  0  0  0  0  0  0  0  0  0  0
   31.0492    2.2973    0.0000 C   0  0  0  0  0  0  0  0  0  0  0  0
   31.9412    1.0694    0.0000 C   0  0  0  0  0  0  0  0  0  0  0  0
   33.4506    1.2279    0.0000 C   0  0  0  0  0  0  0  0  0  0  0  0
   34.3427    0.0000    0.0000 C   0  0  0  0  0  0  0  0  0  0  0  0
   35.8521    0.1586    0.0000 C   0  0  0  0  0  0  0  0  0  0  0  0
  1  2  1  0  0  0  0
  2  3  1  0  0  0  0
  3  4  1  0  0  0  0
  4  5  1  0  0  0  0
  5  1  1  0  0  0  0
  3  6  1  1  0  0  0
  5  7  1  1  0  0  0
  1  8  1  6  0  0  0
  2  9  1  6  0  0  0
  9 10  1  0  0  0  0
 10 11  1  0  0  0  0
 11 12  1  0  0  0  0
 12 13  1  0  0  0  0
 13 14  1  0  0  0  0
 14 15  1  0  0  0  0
 15 16  1  0  0  0  0
 16 21  1  0  0  0  0
 11 17  2  0  0  0  0
  7 18  1  0  0  0  0
  8 19  1  0  0  0  0
 18 20  1  0  0  0  0
 21 22  1  0  0  0  0
 22 23  2  0  0  0  0
 22 24  1  0  0  0  0
 24 25  1  0  0  0  0
 25 26  1  0  0  0  0
 26 27  1  0  0  0  0
 27 28  1  0  0  0  0
 28 29  1  0  0  0  0
 29 30  1  0  0  0  0
 30 31  1  0  0  0  0
 31 32  2  0  0  0  0
 32 33  1  0  0  0  0
 33 34  1  0  0  0  0
 34 35  1  0  0  0  0
 35 36  1  0  0  0  0
 36 37  1  0  0  0  0
 37 38  1  0  0  0  0
A    6
R3
A   19
R1
A   20
R2
M  END

>  <symbol>
ZC16ene9oylaba2r

>  <m_abbr>
ZC16ene9oylaba2r

>  <m_type>
rna

>  <m_subtype>
natural

>  <m_RgroupIdx>
18,19,5

>  <m_Rgroups>
H,H,OH

$$$$

MolEngine07221613482D

 38 38  0  0  0  0            999 V2000
    4.0960   14.0844    0.0000 C   0  0  0  0  0  0  0  0  0  0  0  0
    5.6191   14.0844    0.0000 C   0  0  0  0  0  0  0  0  0  0  0  0
    6.0883   15.5279    0.0000 C   0  0  0  0  0  0  0  0  0  0  0  0
    4.8575   16.4281    0.0000 O   0  0  0  0  0  0  0  0  0  0  0  0
    3.6254   15.5329    0.0000 C   0  0  0  0  0  0  0  0  0  0  0  0
    7.1668   16.6100    0.0000 R#  0  0  0  0  0  0  0  0  0  0  0  0
    2.5483   16.6100    0.0000 C   0  0  0  0  0  0  0  0  0  0  0  0
    3.2007   12.8522    0.0000 O   0  0  0  0  0  0  0  0  0  0  0  0
    6.5145   12.8522    0.0000 O   0  0  0  0  0  0  0  0  0  0  0  0
    8.0292   13.0113    0.0000 C   0  0  0  0  0  0  0  0  0  0  0  0
    8.9246   11.7790    0.0000 C   0  0  0  0  0  0  0  0  0  0  0  0
   10.4392   11.9383    0.0000 N   0  0  0  0  0  0  0  0  0  0  0  0
   11.3347   10.7060    0.0000 C   0  0  0  0  0  0  0  0  0  0  0  0
   12.8495   10.8653    0.0000 C   0  0  0  0  0  0  0  0  0  0  0  0
   13.7447    9.6329    0.0000 C   0  0  0  0  0  0  0  0  0  0  0  0
   15.2596    9.7923    0.0000 C   0  0  0  0  0  0  0  0  0  0  0  0
   16.1548    8.5599    0.0000 N   0  0  0  0  0  0  0  0  0  0  0  0
    8.3050   10.3877    0.0000 O   0  0  0  0  0  0  0  0  0  0  0  0
   17.6643    8.7185    0.0000 C   0  0  0  0  0  0  0  0  0  0  0  0
   18.5564    7.4904    0.0000 C   0  0  0  0  0  0  0  0  0  0  0  0
   18.2818   10.1050    0.0000 O   0  0  0  0  0  0  0  0  0  0  0  0
    1.0770   16.2158    0.0000 O   0  0  0  0  0  0  0  0  0  0  0  0
    3.2007   11.3290    0.0000 R#  0  0  0  0  0  0  0  0  0  0  0  0
    0.0000   17.2928    0.0000 R#  0  0  0  0  0  0  0  0  0  0  0  0
   20.0660    7.6490    0.0000 C   0  0  0  0  0  0  0  0  0  0  0  0
   20.9581    6.4210    0.0000 C   0  0  0  0  0  0  0  0  0  0  0  0
   22.4676    6.5795    0.0000 C   0  0  0  0  0  0  0  0  0  0  0  0
   23.3597    5.3515    0.0000 C   0  0  0  0  0  0  0  0  0  0  0  0
   24.8693    5.5101    0.0000 C   0  0  0  0  0  0  0  0  0  0  0  0
   25.7614    4.2820    0.0000 C   0  0  0  0  0  0  0  0  0  0  0  0
   27.2709    4.4406    0.0000 C   0  0  0  0  0  0  0  0  0  0  0  0
   28.1630    3.2126    0.0000 C   0  0  0  0  0  0  0  0  0  0  0  0
   29.6725    3.3711    0.0000 C   0  0  0  0  0  0  0  0  0  0  0  0
   30.5646    2.1431    0.0000 C   0  0  0  0  0  0  0  0  0  0  0  0
   32.0742    2.3016    0.0000 C   0  0  0  0  0  0  0  0  0  0  0  0
   32.9663    1.0736    0.0000 C   0  0  0  0  0  0  0  0  0  0  0  0
   34.4758    1.2322    0.0000 C   0  0  0  0  0  0  0  0  0  0  0  0
   35.3710    0.0000    0.0000 C   0  0  0  0  0  0  0  0  0  0  0  0
  1  2  1  0  0  0  0
  2  3  1  0  0  0  0
  3  4  1  0  0  0  0
  4  5  1  0  0  0  0
  5  1  1  0  0  0  0
  3  6  1  1  0  0  0
  5  7  1  1  0  0  0
  1  8  1  6  0  0  0
  2  9  1  6  0  0  0
  9 10  1  0  0  0  0
 10 11  1  0  0  0  0
 11 12  1  0  0  0  0
 12 13  1  0  0  0  0
 13 14  1  0  0  0  0
 14 15  1  0  0  0  0
 15 16  1  0  0  0  0
 16 17  1  0  0  0  0
 11 18  2  0  0  0  0
 17 19  1  0  0  0  0
 19 20  1  0  0  0  0
 19 21  2  0  0  0  0
  7 22  1  0  0  0  0
  8 23  1  0  0  0  0
 22 24  1  0  0  0  0
 20 25  1  0  0  0  0
 25 26  1  0  0  0  0
 26 27  1  0  0  0  0
 27 28  1  0  0  0  0
 28 29  1  0  0  0  0
 29 30  1  0  0  0  0
 30 31  1  0  0  0  0
 31 32  1  0  0  0  0
 32 33  1  0  0  0  0
 33 34  1  0  0  0  0
 34 35  1  0  0  0  0
 35 36  1  0  0  0  0
 36 37  1  0  0  0  0
 37 38  1  0  0  0  0
A    6
R3
A   23
R1
A   24
R2
M  END

>  <symbol>
C16aba2r

>  <m_abbr>
C16aba2r

>  <m_type>
rna

>  <m_subtype>
natural

>  <m_RgroupIdx>
22,23,5

>  <m_Rgroups>
H,H,OH

$$$$

MolEngine07221613482D

 12 12  0  0  0  0            999 V2000
    3.9168    4.1934    0.0000 C   0  0  0  0  0  0  0  0  0  0  0  0
    4.2872    2.7162    0.0000 C   0  0  0  0  0  0  0  0  0  0  0  0
    5.8255    2.7028    0.0000 C   0  0  0  0  0  0  0  0  0  0  0  0
    6.3773    4.1538    0.0000 C   0  0  0  0  0  0  0  0  0  0  0  0
    5.2104    5.1307    0.0000 O   0  0  0  0  0  0  0  0  0  0  0  0
    3.3407    1.5230    0.0000 O   0  0  0  0  0  0  0  0  0  0  0  0
    2.4856    4.7143    0.0000 C   0  0  0  0  0  0  0  0  0  0  0  0
    7.8525    4.5324    0.0000 R#  0  0  0  0  0  0  0  0  0  0  0  0
    1.3189    3.7354    0.0000 O   0  0  0  0  0  0  0  0  0  0  0  0
    0.0000    4.4969    0.0000 R#  0  0  0  0  0  0  0  0  0  0  0  0
    3.3407    0.0000    0.0000 R#  0  0  0  0  0  0  0  0  0  0  0  0
    2.2211    6.2142    0.0000 C   0  0  0  0  0  0  0  0  0  0  0  0
  1  2  1  0  0  0  0
  2  3  1  0  0  0  0
  3  4  1  0  0  0  0
  4  5  1  0  0  0  0
  1  5  1  1  0  0  0
  2  6  1  6  0  0  0
  1  7  1  0  0  0  0
  4  8  1  1  0  0  0
  7  9  1  0  0  0  0
  9 10  1  0  0  0  0
  6 11  1  0  0  0  0
  7 12  1  0  0  0  0
A    8
R3
A   10
R1
A   11
R2
M  END

>  <symbol>
m5d

>  <m_abbr>
m5d

>  <m_type>
rna

>  <m_subtype>
natural

>  <m_RgroupIdx>
9,10,7

>  <m_Rgroups>
H,H,OH

$$$$

MolEngine07221613482D

 34 34  0  0  0  0            999 V2000
    4.0959   11.9413    0.0000 C   0  0  0  0  0  0  0  0  0  0  0  0
    5.6191   11.9413    0.0000 C   0  0  0  0  0  0  0  0  0  0  0  0
    6.0882   13.3848    0.0000 C   0  0  0  0  0  0  0  0  0  0  0  0
    4.8575   14.2851    0.0000 O   0  0  0  0  0  0  0  0  0  0  0  0
    3.6253   13.3898    0.0000 C   0  0  0  0  0  0  0  0  0  0  0  0
    7.1668   14.4669    0.0000 R#  0  0  0  0  0  0  0  0  0  0  0  0
    2.5482   14.4669    0.0000 C   0  0  0  0  0  0  0  0  0  0  0  0
    3.2007   10.7091    0.0000 O   0  0  0  0  0  0  0  0  0  0  0  0
    6.5145   10.7091    0.0000 O   0  0  0  0  0  0  0  0  0  0  0  0
    8.0291   10.8683    0.0000 C   0  0  0  0  0  0  0  0  0  0  0  0
    8.9246    9.6359    0.0000 C   0  0  0  0  0  0  0  0  0  0  0  0
   10.4392    9.7952    0.0000 N   0  0  0  0  0  0  0  0  0  0  0  0
   11.3346    8.5629    0.0000 C   0  0  0  0  0  0  0  0  0  0  0  0
   12.8495    8.7222    0.0000 C   0  0  0  0  0  0  0  0  0  0  0  0
   13.7447    7.4899    0.0000 C   0  0  0  0  0  0  0  0  0  0  0  0
   15.2595    7.6492    0.0000 C   0  0  0  0  0  0  0  0  0  0  0  0
   16.1547    6.4168    0.0000 N   0  0  0  0  0  0  0  0  0  0  0  0
    8.3050    8.2446    0.0000 O   0  0  0  0  0  0  0  0  0  0  0  0
   17.6643    6.5754    0.0000 C   0  0  0  0  0  0  0  0  0  0  0  0
   18.5564    5.3474    0.0000 C   0  0  0  0  0  0  0  0  0  0  0  0
   18.2817    7.9620    0.0000 O   0  0  0  0  0  0  0  0  0  0  0  0
    1.0770   14.0727    0.0000 O   0  0  0  0  0  0  0  0  0  0  0  0
    3.2007    9.1860    0.0000 R#  0  0  0  0  0  0  0  0  0  0  0  0
    0.0000   15.1497    0.0000 R#  0  0  0  0  0  0  0  0  0  0  0  0
   20.0659    5.5059    0.0000 C   0  0  0  0  0  0  0  0  0  0  0  0
   20.9580    4.2779    0.0000 C   0  0  0  0  0  0  0  0  0  0  0  0
   22.4676    4.4365    0.0000 C   0  0  0  0  0  0  0  0  0  0  0  0
   23.3597    3.2084    0.0000 C   0  0  0  0  0  0  0  0  0  0  0  0
   24.8692    3.3670    0.0000 C   0  0  0  0  0  0  0  0  0  0  0  0
   25.7613    2.1390    0.0000 C   0  0  0  0  0  0  0  0  0  0  0  0
   27.2709    2.2975    0.0000 C   0  0  0  0  0  0  0  0  0  0  0  0
   28.1630    1.0695    0.0000 C   0  0  0  0  0  0  0  0  0  0  0  0
   29.6725    1.2281    0.0000 C   0  0  0  0  0  0  0  0  0  0  0  0
   30.5646    0.0000    0.0000 C   0  0  0  0  0  0  0  0  0  0  0  0
  1  2  1  0  0  0  0
  2  3  1  0  0  0  0
  3  4  1  0  0  0  0
  4  5  1  0  0  0  0
  5  1  1  0  0  0  0
  3  6  1  1  0  0  0
  5  7  1  1  0  0  0
  1  8  1  6  0  0  0
  2  9  1  6  0  0  0
  9 10  1  0  0  0  0
 10 11  1  0  0  0  0
 11 12  1  0  0  0  0
 12 13  1  0  0  0  0
 13 14  1  0  0  0  0
 14 15  1  0  0  0  0
 15 16  1  0  0  0  0
 16 17  1  0  0  0  0
 11 18  2  0  0  0  0
 17 19  1  0  0  0  0
 19 20  1  0  0  0  0
 19 21  2  0  0  0  0
  7 22  1  0  0  0  0
  8 23  1  0  0  0  0
 22 24  1  0  0  0  0
 20 25  1  0  0  0  0
 25 26  1  0  0  0  0
 26 27  1  0  0  0  0
 27 28  1  0  0  0  0
 28 29  1  0  0  0  0
 29 30  1  0  0  0  0
 30 31  1  0  0  0  0
 31 32  1  0  0  0  0
 32 33  1  0  0  0  0
 33 34  1  0  0  0  0
A    6
R3
A   23
R1
A   24
R2
M  END

>  <symbol>
C12aba2r

>  <m_abbr>
C12aba2r

>  <m_type>
rna

>  <m_subtype>
natural

>  <m_RgroupIdx>
22,23,5

>  <m_Rgroups>
H,H,OH

$$$$

MolEngine07221613482D

 13 13  0  0  0  0            999 V2000
    4.0293    4.2012    0.0000 C   0  0  0  0  0  0  0  0  0  0  0  0
    4.4330    2.7485    0.0000 C   0  0  0  0  0  0  0  0  0  0  0  0
    5.9558    2.7740    0.0000 C   0  0  0  0  0  0  0  0  0  0  0  0
    6.4654    4.2239    0.0000 C   0  0  0  0  0  0  0  0  0  0  0  0
    5.2860    5.1613    0.0000 S   0  0  0  0  0  0  0  0  0  0  0  0
    3.5217    1.5283    0.0000 O   0  0  0  0  0  0  0  0  0  0  0  0
    2.5853    4.6856    0.0000 C   0  0  0  0  0  0  0  0  0  0  0  0
    7.9288    4.6457    0.0000 R#  0  0  0  0  0  0  0  0  0  0  0  0
    1.4439    3.6773    0.0000 O   0  0  0  0  0  0  0  0  0  0  0  0
    0.0000    4.1616    0.0000 R#  0  0  0  0  0  0  0  0  0  0  0  0
    6.8467    1.5388    0.0000 O   0  0  0  0  0  0  0  0  0  0  0  0
    3.5217    0.0000    0.0000 R#  0  0  0  0  0  0  0  0  0  0  0  0
    6.8467    0.0104    0.0000 C   0  0  0  0  0  0  0  0  0  0  0  0
  1  2  1  0  0  0  0
  2  3  1  0  0  0  0
  3  4  1  0  0  0  0
  4  5  1  0  0  0  0
  5  1  1  0  0  0  0
  2  6  1  6  0  0  0
  3 11  1  6  0  0  0
  1  7  1  1  0  0  0
  4  8  1  1  0  0  0
  7  9  1  0  0  0  0
  9 10  1  0  0  0  0
  6 12  1  0  0  0  0
 11 13  1  0  0  0  0
A    8
R3
A   10
R1
A   12
R2
M  END

>  <symbol>
s4m

>  <m_abbr>
s4m

>  <m_type>
rna

>  <m_subtype>
natural

>  <m_RgroupIdx>
9,11,7

>  <m_Rgroups>
H,H,OH

$$$$

MolEngine07221613482D

 52 56  0  0  0  0            999 V2000
    2.1267   12.6548    0.0000 C   0  0  0  0  0  0  0  0  0  0  0  0
    3.1421   11.5270    0.0000 C   0  0  0  0  0  0  0  0  0  0  0  0
    4.5286   12.1444    0.0000 C   0  0  0  0  0  0  0  0  0  0  0  0
    4.3701   13.6536    0.0000 C   0  0  0  0  0  0  0  0  0  0  0  0
    2.8856   13.9692    0.0000 O   0  0  0  0  0  0  0  0  0  0  0  0
    0.6173   12.4962    0.0000 C   0  0  0  0  0  0  0  0  0  0  0  0
    5.4980   14.6691    0.0000 R#  0  0  0  0  0  0  0  0  0  0  0  0
    2.8265   10.0424    0.0000 R#  0  0  0  0  0  0  0  0  0  0  0  0
    5.8430   11.3855    0.0000 O   0  0  0  0  0  0  0  0  0  0  0  0
    5.8430    9.8678    0.0000 C   0  0  0  0  0  0  0  0  0  0  0  0
    7.1574    9.1089    0.0000 C   0  0  0  0  0  0  0  0  0  0  0  0
    7.1574    7.5912    0.0000 N   0  0  0  0  0  0  0  0  0  0  0  0
    8.4718    6.8324    0.0000 C   0  0  0  0  0  0  0  0  0  0  0  0
    8.4718    5.3147    0.0000 C   0  0  0  0  0  0  0  0  0  0  0  0
    0.0000   11.1097    0.0000 R#  0  0  0  0  0  0  0  0  0  0  0  0
   13.7293    0.7615    0.0000 C   0  0  0  0  0  0  0  0  0  0  0  0
   13.7293    2.2845    0.0000 C   0  0  0  0  0  0  0  0  0  0  0  0
   15.0483    3.0460    0.0000 C   0  0  0  0  0  0  0  0  0  0  0  0
   15.0483    0.0000    0.0000 C   0  0  0  0  0  0  0  0  0  0  0  0
   16.3671    0.7615    0.0000 C   0  0  0  0  0  0  0  0  0  0  0  0
   17.6861    0.0000    0.0000 C   0  0  0  0  0  0  0  0  0  0  0  0
   19.0051    0.7615    0.0000 C   0  0  0  0  0  0  0  0  0  0  0  0
   19.0051    2.2845    0.0000 C   0  0  0  0  0  0  0  0  0  0  0  0
   20.3194    3.0434    0.0000 C   0  0  0  0  0  0  0  0  0  0  0  0
   21.7726    2.5754    0.0000 C   0  0  0  0  0  0  0  0  0  0  0  0
   22.6677    3.8075    0.0000 C   0  0  0  0  0  0  0  0  0  0  0  0
   21.7726    5.0398    0.0000 C   0  0  0  0  0  0  0  0  0  0  0  0
   22.2431    6.4882    0.0000 C   0  0  0  0  0  0  0  0  0  0  0  0
   23.7143    6.8823    0.0000 C   0  0  0  0  0  0  0  0  0  0  0  0
   24.1084    8.3534    0.0000 C   0  0  0  0  0  0  0  0  0  0  0  0
   25.5795    8.7476    0.0000 C   0  0  0  0  0  0  0  0  0  0  0  0
   25.9736   10.2187    0.0000 C   0  0  0  0  0  0  0  0  0  0  0  0
   27.4448   10.6128    0.0000 C   0  0  0  0  0  0  0  0  0  0  0  0
   24.8968   11.2957    0.0000 C   0  0  0  0  0  0  0  0  0  0  0  0
   21.1661    7.5652    0.0000 C   0  0  0  0  0  0  0  0  0  0  0  0
   20.3240    4.5690    0.0000 C   0  0  0  0  0  0  0  0  0  0  0  0
   20.3240    6.0920    0.0000 C   0  0  0  0  0  0  0  0  0  0  0  0
   19.0051    5.3305    0.0000 C   0  0  0  0  0  0  0  0  0  0  0  0
   17.6861    4.5690    0.0000 C   0  0  0  0  0  0  0  0  0  0  0  0
   17.6861    3.0460    0.0000 C   0  0  0  0  0  0  0  0  0  0  0  0
   16.3671    2.2845    0.0000 C   0  0  0  0  0  0  0  0  0  0  0  0
   16.3671    3.8075    0.0000 C   0  0  0  0  0  0  0  0  0  0  0  0
   12.4149    0.0027    0.0000 O   0  0  0  0  0  0  0  0  0  0  0  0
   17.6861    1.5230    0.0000 H   0  0  0  0  0  0  0  0  0  0  0  0
   19.0051    3.8075    0.0000 H   0  0  0  0  0  0  0  0  0  0  0  0
   20.3240    1.5230    0.0000 H   0  0  0  0  0  0  0  0  0  0  0  0
    9.7862    4.5558    0.0000 C   0  0  0  0  0  0  0  0  0  0  0  0
    8.4718    9.8678    0.0000 O   0  0  0  0  0  0  0  0  0  0  0  0
    9.7862    3.0381    0.0000 C   0  0  0  0  0  0  0  0  0  0  0  0
   11.1005    2.2793    0.0000 N   0  0  0  0  0  0  0  0  0  0  0  0
   11.1005    0.7615    0.0000 C   0  0  0  0  0  0  0  0  0  0  0  0
    9.7862    0.0027    0.0000 O   0  0  0  0  0  0  0  0  0  0  0  0
  1  2  1  0  0  0  0
  2  3  1  0  0  0  0
  3  4  1  0  0  0  0
  4  5  1  0  0  0  0
  5  1  1  0  0  0  0
  1  6  1  1  0  0  0
  4  7  1  1  0  0  0
  2  8  1  6  0  0  0
  3  9  1  6  0  0  0
  9 10  1  0  0  0  0
 10 11  1  0  0  0  0
 11 12  1  0  0  0  0
 12 13  1  0  0  0  0
 13 14  1  0  0  0  0
  6 15  1  0  0  0  0
 16 17  1  0  0  0  0
 17 18  1  0  0  0  0
 16 19  1  0  0  0  0
 19 20  1  0  0  0  0
 20 21  2  0  0  0  0
 21 22  1  0  0  0  0
 22 23  1  0  0  0  0
 23 24  1  0  0  0  0
 24 25  1  0  0  0  0
 25 26  1  0  0  0  0
 27 26  1  1  0  0  0
 27 28  1  0  0  0  0
 28 29  1  0  0  0  0
 29 30  1  0  0  0  0
 30 31  1  0  0  0  0
 31 32  1  0  0  0  0
 32 33  1  0  0  0  0
 32 34  1  0  0  0  0
 28 35  1  6  0  0  0
 27 36  1  0  0  0  0
 24 36  1  0  0  0  0
 36 37  1  1  0  0  0
 36 38  1  0  0  0  0
 38 39  1  0  0  0  0
 39 40  1  0  0  0  0
 23 40  1  0  0  0  0
 40 41  1  0  0  0  0
 18 41  1  0  0  0  0
 20 41  1  0  0  0  0
 41 42  1  1  0  0  0
 16 43  1  0  0  0  0
 40 44  1  6  0  0  0
 23 45  1  1  0  0  0
 24 46  1  6  0  0  0
 14 47  1  0  0  0  0
 11 48  2  0  0  0  0
 47 49  1  0  0  0  0
 49 50  1  0  0  0  0
 50 51  1  0  0  0  0
 51 52  2  0  0  0  0
 51 43  1  0  0  0  0
A    7
R3
A    8
R1
A   15
R2
M  END

>  <symbol>
cholcaba2r

>  <m_abbr>
cholcaba2r

>  <m_type>
rna

>  <m_subtype>
natural

>  <m_RgroupIdx>
7,14,6

>  <m_Rgroups>
H,H,OH

$$$$

MolEngine07221613482D

 12 12  0  0  0  0            999 V2000
    3.9168    4.1934    0.0000 C   0  0  0  0  0  0  0  0  0  0  0  0
    4.2872    2.7162    0.0000 C   0  0  0  0  0  0  0  0  0  0  0  0
    5.8256    2.7028    0.0000 C   0  0  0  0  0  0  0  0  0  0  0  0
    6.3774    4.1538    0.0000 C   0  0  0  0  0  0  0  0  0  0  0  0
    5.2104    5.1307    0.0000 O   0  0  0  0  0  0  0  0  0  0  0  0
    3.3407    1.5230    0.0000 O   0  0  0  0  0  0  0  0  0  0  0  0
    2.4857    4.7143    0.0000 C   0  0  0  0  0  0  0  0  0  0  0  0
    7.8526    4.5323    0.0000 R#  0  0  0  0  0  0  0  0  0  0  0  0
    1.3190    3.7354    0.0000 O   0  0  0  0  0  0  0  0  0  0  0  0
    0.0000    4.4968    0.0000 R#  0  0  0  0  0  0  0  0  0  0  0  0
    3.3407    0.0000    0.0000 R#  0  0  0  0  0  0  0  0  0  0  0  0
    2.2212    6.2142    0.0000 C   0  0  0  0  0  0  0  0  0  0  0  0
  1  2  1  0  0  0  0
  2  3  1  0  0  0  0
  3  4  1  0  0  0  0
  4  5  1  0  0  0  0
  1  5  1  1  0  0  0
  2  6  1  6  0  0  0
  1  7  1  0  0  0  0
  4  8  1  1  0  0  0
  7  9  1  0  0  0  0
  9 10  1  0  0  0  0
  6 11  1  0  0  0  0
  7 12  1  6  0  0  0
A    8
R3
A   10
R1
A   11
R2
M  END

>  <symbol>
Rm5d

>  <m_abbr>
Rm5d

>  <m_type>
rna

>  <m_subtype>
natural

>  <m_RgroupIdx>
9,10,7

>  <m_Rgroups>
H,H,OH

$$$$

MolEngine07221613482D

 12 12  0  0  0  0            999 V2000
    3.9168    4.1934    0.0000 C   0  0  0  0  0  0  0  0  0  0  0  0
    4.2872    2.7162    0.0000 C   0  0  0  0  0  0  0  0  0  0  0  0
    5.8256    2.7028    0.0000 C   0  0  0  0  0  0  0  0  0  0  0  0
    6.3774    4.1538    0.0000 C   0  0  0  0  0  0  0  0  0  0  0  0
    5.2104    5.1307    0.0000 O   0  0  0  0  0  0  0  0  0  0  0  0
    3.3407    1.5230    0.0000 O   0  0  0  0  0  0  0  0  0  0  0  0
    2.4857    4.7143    0.0000 C   0  0  0  0  0  0  0  0  0  0  0  0
    7.8526    4.5323    0.0000 R#  0  0  0  0  0  0  0  0  0  0  0  0
    1.3190    3.7354    0.0000 O   0  0  0  0  0  0  0  0  0  0  0  0
    0.0000    4.4968    0.0000 R#  0  0  0  0  0  0  0  0  0  0  0  0
    3.3407    0.0000    0.0000 R#  0  0  0  0  0  0  0  0  0  0  0  0
    2.2212    6.2142    0.0000 C   0  0  0  0  0  0  0  0  0  0  0  0
  1  2  1  0  0  0  0
  2  3  1  0  0  0  0
  3  4  1  0  0  0  0
  4  5  1  0  0  0  0
  1  5  1  1  0  0  0
  2  6  1  6  0  0  0
  1  7  1  0  0  0  0
  4  8  1  1  0  0  0
  7  9  1  0  0  0  0
  9 10  1  0  0  0  0
  6 11  1  0  0  0  0
  7 12  1  1  0  0  0
A    8
R3
A   10
R1
A   11
R2
M  END

>  <symbol>
Sm5d

>  <m_abbr>
Sm5d

>  <m_type>
rna

>  <m_subtype>
natural

>  <m_RgroupIdx>
9,10,7

>  <m_Rgroups>
H,H,OH

$$$$

MolEngine07221613482D

 14 14  0  0  0  0            999 V2000
    3.9168    4.2711    0.0000 C   0  0  0  0  0  0  0  0  0  0  0  0
    4.2872    2.7939    0.0000 C   0  0  0  0  0  0  0  0  0  0  0  0
    5.8256    2.7805    0.0000 C   0  0  0  0  0  0  0  0  0  0  0  0
    6.3774    4.2315    0.0000 C   0  0  0  0  0  0  0  0  0  0  0  0
    5.2105    5.2084    0.0000 O   0  0  0  0  0  0  0  0  0  0  0  0
    3.3407    1.6007    0.0000 O   0  0  0  0  0  0  0  0  0  0  0  0
    2.4857    4.7920    0.0000 C   0  0  0  0  0  0  0  0  0  0  0  0
    7.8526    4.6100    0.0000 R#  0  0  0  0  0  0  0  0  0  0  0  0
    1.3190    3.8130    0.0000 O   0  0  0  0  0  0  0  0  0  0  0  0
    0.0000    4.5746    0.0000 R#  0  0  0  0  0  0  0  0  0  0  0  0
    3.3407    0.0777    0.0000 R#  0  0  0  0  0  0  0  0  0  0  0  0
    2.2212    6.2919    0.0000 C   0  0  0  0  0  0  0  0  0  0  0  0
    6.6847    1.5230    0.0000 O   0  0  0  0  0  0  0  0  0  0  0  0
    6.6847    0.0000    0.0000 C   0  0  0  0  0  0  0  0  0  0  0  0
  1  2  1  0  0  0  0
  2  3  1  0  0  0  0
  3  4  1  0  0  0  0
  4  5  1  0  0  0  0
  1  5  1  1  0  0  0
  2  6  1  6  0  0  0
  1  7  1  0  0  0  0
  4  8  1  1  0  0  0
  7  9  1  0  0  0  0
  9 10  1  0  0  0  0
  6 11  1  0  0  0  0
  7 12  1  0  0  0  0
  3 13  1  6  0  0  0
 13 14  1  0  0  0  0
A    8
R3
A   10
R1
A   11
R2
M  END

>  <symbol>
m5m

>  <m_abbr>
m5m

>  <m_type>
rna

>  <m_subtype>
natural

>  <m_RgroupIdx>
9,10,7

>  <m_Rgroups>
H,H,OH

$$$$

MolEngine07221613482D

 20 20  0  0  0  0            999 V2000
    4.0295    8.0497    0.0000 C   0  0  0  0  0  0  0  0  0  0  0  0
    4.4724    6.5926    0.0000 C   0  0  0  0  0  0  0  0  0  0  0  0
    5.9952    6.5636    0.0000 C   0  0  0  0  0  0  0  0  0  0  0  0
    6.4881    7.9879    0.0000 C   0  0  0  0  0  0  0  0  0  0  0  0
    5.2784    8.9213    0.0000 O   0  0  0  0  0  0  0  0  0  0  0  0
    2.5902    8.5478    0.0000 C   0  0  0  0  0  0  0  0  0  0  0  0
    3.5540    5.3777    0.0000 O   0  0  0  0  0  0  0  0  0  0  0  0
    1.4392    7.5505    0.0000 O   0  0  0  0  0  0  0  0  0  0  0  0
    0.0000    8.0486    0.0000 R#  0  0  0  0  0  0  0  0  0  0  0  0
    3.6047    3.8556    0.0000 R#  0  0  0  0  0  0  0  0  0  0  0  0
    6.8667    5.3147    0.0000 O   0  0  0  0  0  0  0  0  0  0  0  0
    7.9504    8.4458    0.0000 R#  0  0  0  0  0  0  0  0  0  0  0  0
    6.8667    3.7917    0.0000 C   0  0  0  0  0  0  0  0  0  0  0  0
    8.1857    3.0302    0.0000 C   0  0  0  0  0  0  0  0  0  0  0  0
    9.2626    4.1071    0.0000 F   0  0  0  0  0  0  0  0  0  0  0  0
    9.7087    3.0302    0.0000 F   0  0  0  0  0  0  0  0  0  0  0  0
    8.1857    1.5177    0.0000 C   0  0  0  0  0  0  0  0  0  0  0  0
    6.8713    0.7589    0.0000 F   0  0  0  0  0  0  0  0  0  0  0  0
    8.1857    0.0000    0.0000 F   0  0  0  0  0  0  0  0  0  0  0  0
    9.5001    0.7589    0.0000 F   0  0  0  0  0  0  0  0  0  0  0  0
  1  2  1  0  0  0  0
  2  3  1  0  0  0  0
  3  4  1  0  0  0  0
  4  5  1  0  0  0  0
  5  1  1  0  0  0  0
  1  6  1  1  0  0  0
  2  7  1  6  0  0  0
  6  8  1  0  0  0  0
  8  9  1  0  0  0  0
  7 10  1  0  0  0  0
  3 11  1  6  0  0  0
  4 12  1  1  0  0  0
 11 13  1  0  0  0  0
 13 14  1  0  0  0  0
 14 17  1  0  0  0  0
 14 15  1  0  0  0  0
 14 16  1  0  0  0  0
 17 20  1  0  0  0  0
 17 19  1  0  0  0  0
 17 18  1  0  0  0  0
A    9
R1
A   10
R2
A   12
R3
M  END

>  <symbol>
fl5pr2r

>  <m_abbr>
fl5pr2r

>  <m_type>
rna

>  <m_subtype>
natural

>  <m_RgroupIdx>
8,9,11

>  <m_Rgroups>
H,H,OH

$$$$

MolEngine07221613482D

 40 40  0  0  0  0            999 V2000
    3.9168   20.7209    0.0000 C   0  0  0  0  0  0  0  0  0  0  0  0
    4.2872   19.2436    0.0000 C   0  0  0  0  0  0  0  0  0  0  0  0
    5.8256   19.2303    0.0000 C   0  0  0  0  0  0  0  0  0  0  0  0
    6.3774   20.6812    0.0000 C   0  0  0  0  0  0  0  0  0  0  0  0
    5.2105   21.6582    0.0000 O   0  0  0  0  0  0  0  0  0  0  0  0
    3.3407   18.0505    0.0000 O   0  0  0  0  0  0  0  0  0  0  0  0
    2.4856   21.2418    0.0000 C   0  0  0  0  0  0  0  0  0  0  0  0
    7.8526   21.0598    0.0000 R#  0  0  0  0  0  0  0  0  0  0  0  0
    1.3190   20.2628    0.0000 O   0  0  0  0  0  0  0  0  0  0  0  0
    0.0000   21.0243    0.0000 R#  0  0  0  0  0  0  0  0  0  0  0  0
    3.3407   16.5275    0.0000 R#  0  0  0  0  0  0  0  0  0  0  0  0
    6.6397   17.9438    0.0000 O   0  0  0  0  0  0  0  0  0  0  0  0
   10.4472   16.6249    0.0000 C   0  0  0  0  0  0  0  0  0  0  0  0
    8.9242   16.6249    0.0000 C   0  0  0  0  0  0  0  0  0  0  0  0
    8.1627   17.9438    0.0000 C   0  0  0  0  0  0  0  0  0  0  0  0
   11.2087   15.3059    0.0000 C   0  0  0  0  0  0  0  0  0  0  0  0
   12.7317   15.3059    0.0000 C   0  0  0  0  0  0  0  0  0  0  0  0
   13.4932   13.9870    0.0000 C   0  0  0  0  0  0  0  0  0  0  0  0
   15.0162   13.9870    0.0000 N   0  0  0  0  0  0  0  0  0  0  0  0
   37.3584    0.0000    0.0000 C   0  0  0  0  0  0  0  0  0  0  0  0
   36.5899    1.3147    0.0000 C   0  0  0  0  0  0  0  0  0  0  0  0
   35.0668    1.3066    0.0000 C   0  0  0  0  0  0  0  0  0  0  0  0
   34.2982    2.6214    0.0000 C   0  0  0  0  0  0  0  0  0  0  0  0
   32.7752    2.6132    0.0000 C   0  0  0  0  0  0  0  0  0  0  0  0
   32.0067    3.9280    0.0000 C   0  0  0  0  0  0  0  0  0  0  0  0
   30.4837    3.9198    0.0000 C   0  0  0  0  0  0  0  0  0  0  0  0
   29.7150    5.2346    0.0000 C   0  0  0  0  0  0  0  0  0  0  0  0
   28.1921    5.2264    0.0000 C   0  0  0  0  0  0  0  0  0  0  0  0
   26.8691    5.9808    0.0000 C   0  0  0  0  0  0  0  0  0  0  0  0
   26.4171    7.2009    0.0000 C   0  0  0  0  0  0  0  0  0  0  0  0
   24.9439    7.4416    0.0000 C   0  0  0  0  0  0  0  0  0  0  0  0
   24.1753    8.7565    0.0000 C   0  0  0  0  0  0  0  0  0  0  0  0
   22.6524    8.7482    0.0000 C   0  0  0  0  0  0  0  0  0  0  0  0
   21.8838   10.0631    0.0000 C   0  0  0  0  0  0  0  0  0  0  0  0
   20.3607   10.0549    0.0000 C   0  0  0  0  0  0  0  0  0  0  0  0
   19.5923   11.3696    0.0000 C   0  0  0  0  0  0  0  0  0  0  0  0
   18.0692   11.3614    0.0000 C   0  0  0  0  0  0  0  0  0  0  0  0
   17.3006   12.6763    0.0000 C   0  0  0  0  0  0  0  0  0  0  0  0
   15.7777   12.6680    0.0000 C   0  0  0  0  0  0  0  0  0  0  0  0
   15.0233   11.3450    0.0000 O   0  0  0  0  0  0  0  0  0  0  0  0
  1  2  1  0  0  0  0
  2  3  1  0  0  0  0
  3  4  1  0  0  0  0
  4  5  1  0  0  0  0
  5  1  1  0  0  0  0
  2  6  1  6  0  0  0
  3 12  1  6  0  0  0
  1  7  1  1  0  0  0
  4  8  1  1  0  0  0
  7  9  1  0  0  0  0
  9 10  1  0  0  0  0
  6 11  1  0  0  0  0
 14 15  1  0  0  0  0
 13 14  1  0  0  0  0
 12 15  1  0  0  0  0
 13 16  1  0  0  0  0
 16 17  1  0  0  0  0
 17 18  1  0  0  0  0
 18 19  1  0  0  0  0
 19 39  1  0  0  0  0
 21 20  1  0  0  0  0
 22 21  1  0  0  0  0
 23 22  1  0  0  0  0
 24 23  1  0  0  0  0
 25 24  1  0  0  0  0
 26 25  1  0  0  0  0
 27 26  1  0  0  0  0
 28 27  1  0  0  0  0
 28 29  2  0  0  0  0
 29 30  1  0  0  0  0
 31 30  1  0  0  0  0
 32 31  1  0  0  0  0
 33 32  1  0  0  0  0
 34 33  1  0  0  0  0
 35 34  1  0  0  0  0
 36 35  1  0  0  0  0
 37 36  1  0  0  0  0
 38 37  1  0  0  0  0
 38 39  1  0  0  0  0
 39 40  2  0  0  0  0
A    8
R3
A   10
R1
A   11
R2
M  END

>  <symbol>
C20ene11oylnC62r

>  <m_abbr>
C20ene11oylnC62r

>  <m_type>
rna

>  <m_subtype>
natural

>  <m_RgroupIdx>
9,10,7

>  <m_Rgroups>
H,H,OH

$$$$

MolEngine07221613482D

 16 16  0  0  0  0            999 V2000
    4.0293    4.9550    0.0000 C   0  0  0  0  0  0  0  0  0  0  0  0
    4.4330    3.5023    0.0000 C   0  0  0  0  0  0  0  0  0  0  0  0
    5.9558    3.5278    0.0000 C   0  0  0  0  0  0  0  0  0  0  0  0
    6.4654    4.9776    0.0000 C   0  0  0  0  0  0  0  0  0  0  0  0
    5.2860    5.9151    0.0000 S   0  0  0  0  0  0  0  0  0  0  0  0
    3.5217    2.2820    0.0000 O   0  0  0  0  0  0  0  0  0  0  0  0
    2.5853    5.4393    0.0000 C   0  0  0  0  0  0  0  0  0  0  0  0
    7.9288    5.3994    0.0000 R#  0  0  0  0  0  0  0  0  0  0  0  0
    1.4439    4.4310    0.0000 O   0  0  0  0  0  0  0  0  0  0  0  0
    0.0000    4.9153    0.0000 R#  0  0  0  0  0  0  0  0  0  0  0  0
    6.8466    2.2925    0.0000 O   0  0  0  0  0  0  0  0  0  0  0  0
    3.5217    0.7537    0.0000 R#  0  0  0  0  0  0  0  0  0  0  0  0
    6.8466    0.7642    0.0000 C   0  0  0  0  0  0  0  0  0  0  0  0
    8.1702    0.0000    0.0000 C   0  0  0  0  0  0  0  0  0  0  0  0
    9.4938    0.7642    0.0000 O   0  0  0  0  0  0  0  0  0  0  0  0
   10.8173    0.0000    0.0000 C   0  0  0  0  0  0  0  0  0  0  0  0
  1  2  1  0  0  0  0
  2  3  1  0  0  0  0
  3  4  1  0  0  0  0
  4  5  1  0  0  0  0
  5  1  1  0  0  0  0
  2  6  1  6  0  0  0
  3 11  1  6  0  0  0
  1  7  1  1  0  0  0
  4  8  1  1  0  0  0
  7  9  1  0  0  0  0
  9 10  1  0  0  0  0
  6 12  1  0  0  0  0
 11 13  1  0  0  0  0
 13 14  1  0  0  0  0
 14 15  1  0  0  0  0
 15 16  1  0  0  0  0
A    8
R3
A   10
R1
A   12
R2
M  END

>  <symbol>
s4moe

>  <m_abbr>
s4moe

>  <m_type>
rna

>  <m_subtype>
natural

>  <m_RgroupIdx>
9,11,7

>  <m_Rgroups>
H,H,OH

$$$$

MolEngine07221613482D

 14 15  0  0  0  0            999 V2000
    3.6219    2.6695    0.0000 C   0  0  0  0  0  0  0  0  0  0  0  0
    5.9564    1.3679    0.0000 O   0  0  0  0  0  0  0  0  0  0  0  0
    4.0689    4.2992    0.0000 C   0  0  0  0  0  0  0  0  0  0  0  0
    4.4394    2.8220    0.0000 C   0  0  0  0  0  0  0  0  0  0  0  0
    5.9777    2.8086    0.0000 C   0  0  0  0  0  0  0  0  0  0  0  0
    6.5295    4.2596    0.0000 C   0  0  0  0  0  0  0  0  0  0  0  0
    5.3626    5.2365    0.0000 O   0  0  0  0  0  0  0  0  0  0  0  0
    3.9159    1.5230    0.0000 O   0  0  0  0  0  0  0  0  0  0  0  0
    2.6378    4.8201    0.0000 C   0  0  0  0  0  0  0  0  0  0  0  0
    8.0047    4.6381    0.0000 R#  0  0  0  0  0  0  0  0  0  0  0  0
    1.4711    3.8411    0.0000 O   0  0  0  0  0  0  0  0  0  0  0  0
    0.0000    4.2353    0.0000 R#  0  0  0  0  0  0  0  0  0  0  0  0
    3.9159    0.0000    0.0000 R#  0  0  0  0  0  0  0  0  0  0  0  0
    2.3733    6.3200    0.0000 C   0  0  0  0  0  0  0  0  0  0  0  0
  1  2  1  0  0  0  0
  3  4  1  0  0  0  0
  4  5  1  0  0  0  0
  5  6  1  0  0  0  0
  6  7  1  0  0  0  0
  7  3  1  0  0  0  0
  4  8  1  6  0  0  0
  3  9  1  0  0  0  0
  6 10  1  1  0  0  0
  9 11  1  0  0  0  0
  3  1  1  6  0  0  0
  5  2  1  6  0  0  0
 11 12  1  0  0  0  0
  8 13  1  0  0  0  0
  9 14  1  6  0  0  0
A   10
R3
A   12
R1
A   13
R2
M  END

>  <symbol>
Rm5lna

>  <m_abbr>
Rm5lna

>  <m_type>
rna

>  <m_subtype>
natural

>  <m_RgroupIdx>
11,12,9

>  <m_Rgroups>
H,H,OH

$$$$

MolEngine07221613482D

 14 15  0  0  0  0            999 V2000
    3.6219    2.6695    0.0000 C   0  0  0  0  0  0  0  0  0  0  0  0
    5.9564    1.3679    0.0000 O   0  0  0  0  0  0  0  0  0  0  0  0
    4.0689    4.2992    0.0000 C   0  0  0  0  0  0  0  0  0  0  0  0
    4.4394    2.8220    0.0000 C   0  0  0  0  0  0  0  0  0  0  0  0
    5.9777    2.8086    0.0000 C   0  0  0  0  0  0  0  0  0  0  0  0
    6.5295    4.2596    0.0000 C   0  0  0  0  0  0  0  0  0  0  0  0
    5.3626    5.2365    0.0000 O   0  0  0  0  0  0  0  0  0  0  0  0
    3.9159    1.5230    0.0000 O   0  0  0  0  0  0  0  0  0  0  0  0
    2.6378    4.8201    0.0000 C   0  0  0  0  0  0  0  0  0  0  0  0
    8.0047    4.6381    0.0000 R#  0  0  0  0  0  0  0  0  0  0  0  0
    1.4711    3.8411    0.0000 O   0  0  0  0  0  0  0  0  0  0  0  0
    0.0000    4.2353    0.0000 R#  0  0  0  0  0  0  0  0  0  0  0  0
    3.9159    0.0000    0.0000 R#  0  0  0  0  0  0  0  0  0  0  0  0
    2.3733    6.3200    0.0000 C   0  0  0  0  0  0  0  0  0  0  0  0
  1  2  1  0  0  0  0
  3  4  1  0  0  0  0
  4  5  1  0  0  0  0
  5  6  1  0  0  0  0
  6  7  1  0  0  0  0
  7  3  1  0  0  0  0
  4  8  1  6  0  0  0
  3  9  1  0  0  0  0
  6 10  1  1  0  0  0
  9 11  1  0  0  0  0
  3  1  1  6  0  0  0
  5  2  1  6  0  0  0
 11 12  1  0  0  0  0
  8 13  1  0  0  0  0
  9 14  1  1  0  0  0
A   10
R3
A   12
R1
A   13
R2
M  END

>  <symbol>
Sm5lna

>  <m_abbr>
Sm5lna

>  <m_type>
rna

>  <m_subtype>
natural

>  <m_RgroupIdx>
11,12,9

>  <m_Rgroups>
H,H,OH

$$$$

MolEngine07221613482D

 14 15  0  0  0  0            999 V2000
    3.6219    2.8416    0.0000 C   0  0  0  0  0  0  0  0  0  0  0  0
    5.9564    1.5401    0.0000 O   0  0  0  0  0  0  0  0  0  0  0  0
    4.0689    4.4714    0.0000 C   0  0  0  0  0  0  0  0  0  0  0  0
    4.4393    2.9941    0.0000 C   0  0  0  0  0  0  0  0  0  0  0  0
    5.9777    2.9808    0.0000 C   0  0  0  0  0  0  0  0  0  0  0  0
    6.5295    4.4317    0.0000 C   0  0  0  0  0  0  0  0  0  0  0  0
    5.3626    5.4086    0.0000 O   0  0  0  0  0  0  0  0  0  0  0  0
    2.6378    4.9923    0.0000 C   0  0  0  0  0  0  0  0  0  0  0  0
    8.0047    4.8103    0.0000 R#  0  0  0  0  0  0  0  0  0  0  0  0
    1.4711    4.0133    0.0000 O   0  0  0  0  0  0  0  0  0  0  0  0
    0.0000    4.4075    0.0000 R#  0  0  0  0  0  0  0  0  0  0  0  0
    2.2162    2.2555    0.0000 C   0  0  0  0  0  0  0  0  0  0  0  0
    4.0452    1.5230    0.0000 O   0  0  0  0  0  0  0  0  0  0  0  0
    4.0452    0.0000    0.0000 R#  0  0  0  0  0  0  0  0  0  0  0  0
  1  2  1  0  0  0  0
  3  4  1  0  0  0  0
  4  5  1  0  0  0  0
  5  6  1  0  0  0  0
  6  7  1  0  0  0  0
  3  7  1  6  0  0  0
  3  8  1  1  0  0  0
  6  9  1  1  0  0  0
  8 10  1  0  0  0  0
  3  1  1  0  0  0  0
  5  2  1  6  0  0  0
 10 11  1  0  0  0  0
  1 12  1  6  0  0  0
  4 13  1  6  0  0  0
 13 14  1  0  0  0  0
A    9
R3
A   11
R1
A   14
R2
M  END

>  <symbol>
Rcet

>  <m_abbr>
Rcet

>  <m_type>
rna

>  <m_subtype>
natural

>  <m_RgroupIdx>
10,13,8

>  <m_Rgroups>
H,H,OH

$$$$

MolEngine07221613482D

 14 15  0  0  0  0            999 V2000
    3.6219    2.8417    0.0000 C   0  0  0  0  0  0  0  0  0  0  0  0
    5.9564    1.5401    0.0000 O   0  0  0  0  0  0  0  0  0  0  0  0
    4.0689    4.4714    0.0000 C   0  0  0  0  0  0  0  0  0  0  0  0
    4.4393    2.9942    0.0000 C   0  0  0  0  0  0  0  0  0  0  0  0
    5.9777    2.9808    0.0000 C   0  0  0  0  0  0  0  0  0  0  0  0
    6.5295    4.4317    0.0000 C   0  0  0  0  0  0  0  0  0  0  0  0
    5.3626    5.4087    0.0000 O   0  0  0  0  0  0  0  0  0  0  0  0
    2.6378    4.9923    0.0000 C   0  0  0  0  0  0  0  0  0  0  0  0
    8.0047    4.8103    0.0000 R#  0  0  0  0  0  0  0  0  0  0  0  0
    1.4711    4.0133    0.0000 O   0  0  0  0  0  0  0  0  0  0  0  0
    0.0000    4.4075    0.0000 R#  0  0  0  0  0  0  0  0  0  0  0  0
    2.2162    2.2555    0.0000 C   0  0  0  0  0  0  0  0  0  0  0  0
    4.0452    1.5231    0.0000 O   0  0  0  0  0  0  0  0  0  0  0  0
    4.0452    0.0000    0.0000 R#  0  0  0  0  0  0  0  0  0  0  0  0
  1  2  1  0  0  0  0
  3  4  1  0  0  0  0
  4  5  1  0  0  0  0
  5  6  1  0  0  0  0
  6  7  1  0  0  0  0
  3  7  1  6  0  0  0
  3  8  1  1  0  0  0
  6  9  1  1  0  0  0
  8 10  1  0  0  0  0
  3  1  1  0  0  0  0
  5  2  1  6  0  0  0
 10 11  1  0  0  0  0
  1 12  1  1  0  0  0
  4 13  1  6  0  0  0
 13 14  1  0  0  0  0
A    9
R3
A   11
R1
A   14
R2
M  END

>  <symbol>
cet

>  <m_abbr>
cet

>  <m_type>
rna

>  <m_subtype>
natural

>  <m_RgroupIdx>
10,13,8

>  <m_Rgroups>
H,H,OH

$$$$

MolEngine07221613482D

 13 13  0  0  0  0            999 V2000
    3.9168    4.1934    0.0000 C   0  0  0  0  0  0  0  0  0  0  0  0
    4.2872    2.7162    0.0000 C   0  0  0  0  0  0  0  0  0  0  0  0
    5.8256    2.7028    0.0000 C   0  0  0  0  0  0  0  0  0  0  0  0
    6.3774    4.1538    0.0000 C   0  0  0  0  0  0  0  0  0  0  0  0
    5.2104    5.1307    0.0000 O   0  0  0  0  0  0  0  0  0  0  0  0
    3.3407    1.5230    0.0000 O   0  0  0  0  0  0  0  0  0  0  0  0
    2.4857    4.7143    0.0000 C   0  0  0  0  0  0  0  0  0  0  0  0
    7.8526    4.5323    0.0000 R#  0  0  0  0  0  0  0  0  0  0  0  0
    1.3190    3.7354    0.0000 O   0  0  0  0  0  0  0  0  0  0  0  0
    0.0000    4.4968    0.0000 R#  0  0  0  0  0  0  0  0  0  0  0  0
    3.3407    0.0000    0.0000 R#  0  0  0  0  0  0  0  0  0  0  0  0
    2.2212    6.2142    0.0000 C   0  0  0  0  0  0  0  0  0  0  0  0
    6.6847    1.4453    0.0000 F   0  0  0  0  0  0  0  0  0  0  0  0
  1  2  1  0  0  0  0
  2  3  1  0  0  0  0
  3  4  1  0  0  0  0
  4  5  1  0  0  0  0
  1  5  1  1  0  0  0
  2  6  1  6  0  0  0
  1  7  1  0  0  0  0
  4  8  1  1  0  0  0
  7  9  1  0  0  0  0
  9 10  1  0  0  0  0
  6 11  1  0  0  0  0
  7 12  1  6  0  0  0
  3 13  1  6  0  0  0
A    8
R3
A   10
R1
A   11
R2
M  END

>  <symbol>
Rm5fl2r

>  <m_abbr>
Rm5fl2r

>  <m_type>
rna

>  <m_subtype>
natural

>  <m_RgroupIdx>
9,10,7

>  <m_Rgroups>
H,H,OH

$$$$

MolEngine07221613482D

 13 13  0  0  0  0            999 V2000
    3.9168    4.1934    0.0000 C   0  0  0  0  0  0  0  0  0  0  0  0
    4.2872    2.7162    0.0000 C   0  0  0  0  0  0  0  0  0  0  0  0
    5.8256    2.7028    0.0000 C   0  0  0  0  0  0  0  0  0  0  0  0
    6.3774    4.1538    0.0000 C   0  0  0  0  0  0  0  0  0  0  0  0
    5.2104    5.1307    0.0000 O   0  0  0  0  0  0  0  0  0  0  0  0
    3.3407    1.5230    0.0000 O   0  0  0  0  0  0  0  0  0  0  0  0
    2.4857    4.7143    0.0000 C   0  0  0  0  0  0  0  0  0  0  0  0
    7.8526    4.5323    0.0000 R#  0  0  0  0  0  0  0  0  0  0  0  0
    1.3190    3.7354    0.0000 O   0  0  0  0  0  0  0  0  0  0  0  0
    0.0000    4.4968    0.0000 R#  0  0  0  0  0  0  0  0  0  0  0  0
    3.3407    0.0000    0.0000 R#  0  0  0  0  0  0  0  0  0  0  0  0
    2.2212    6.2142    0.0000 C   0  0  0  0  0  0  0  0  0  0  0  0
    6.6847    1.4453    0.0000 F   0  0  0  0  0  0  0  0  0  0  0  0
  1  2  1  0  0  0  0
  2  3  1  0  0  0  0
  3  4  1  0  0  0  0
  4  5  1  0  0  0  0
  1  5  1  1  0  0  0
  2  6  1  6  0  0  0
  1  7  1  0  0  0  0
  4  8  1  1  0  0  0
  7  9  1  0  0  0  0
  9 10  1  0  0  0  0
  6 11  1  0  0  0  0
  7 12  1  1  0  0  0
  3 13  1  6  0  0  0
A    8
R3
A   10
R1
A   11
R2
M  END

>  <symbol>
Sm5fl2r

>  <m_abbr>
Sm5fl2r

>  <m_type>
rna

>  <m_subtype>
natural

>  <m_RgroupIdx>
9,10,7

>  <m_Rgroups>
H,H,OH

$$$$

MolEngine07221613482D

 16 17  0  0  0  0            999 V2000
    3.6219    3.0208    0.0000 C   0  0  0  0  0  0  0  0  0  0  0  0
    5.9564    1.7193    0.0000 O   0  0  0  0  0  0  0  0  0  0  0  0
    4.0690    4.6506    0.0000 C   0  0  0  0  0  0  0  0  0  0  0  0
    4.4394    3.1733    0.0000 C   0  0  0  0  0  0  0  0  0  0  0  0
    5.9778    3.1600    0.0000 C   0  0  0  0  0  0  0  0  0  0  0  0
    6.5296    4.6109    0.0000 C   0  0  0  0  0  0  0  0  0  0  0  0
    5.3626    5.5878    0.0000 O   0  0  0  0  0  0  0  0  0  0  0  0
    2.6378    5.1715    0.0000 C   0  0  0  0  0  0  0  0  0  0  0  0
    8.0047    4.9895    0.0000 R#  0  0  0  0  0  0  0  0  0  0  0  0
    1.4711    4.1925    0.0000 O   0  0  0  0  0  0  0  0  0  0  0  0
    0.0000    4.5867    0.0000 R#  0  0  0  0  0  0  0  0  0  0  0  0
    2.2162    2.4347    0.0000 C   0  0  0  0  0  0  0  0  0  0  0  0
    4.0452    1.7022    0.0000 O   0  0  0  0  0  0  0  0  0  0  0  0
    4.0452    0.1792    0.0000 R#  0  0  0  0  0  0  0  0  0  0  0  0
    2.0210    0.9242    0.0000 O   0  0  0  0  0  0  0  0  0  0  0  0
    3.2315    0.0000    0.0000 C   0  0  0  0  0  0  0  0  0  0  0  0
 15 16  1  0  0  0  0
  1  2  1  0  0  0  0
  3  4  1  0  0  0  0
  4  5  1  0  0  0  0
  5  6  1  0  0  0  0
  6  7  1  0  0  0  0
  3  7  1  0  0  0  0
  3  8  1  1  0  0  0
  6  9  1  1  0  0  0
  8 10  1  0  0  0  0
  3  1  1  0  0  0  0
  5  2  1  6  0  0  0
 10 11  1  0  0  0  0
  1 12  1  1  0  0  0
  4 13  1  6  0  0  0
 13 14  1  0  0  0  0
 12 15  1  0  0  0  0
A    9
R3
A   11
R1
A   14
R2
M  END

>  <symbol>
Scmoe

>  <m_abbr>
Scmoe

>  <m_type>
rna

>  <m_subtype>
natural

>  <m_RgroupIdx>
10,13,8

>  <m_Rgroups>
H,H,OH

$$$$

MolEngine07221613482D

 16 17  0  0  0  0            999 V2000
    3.6219    3.0208    0.0000 C   0  0  0  0  0  0  0  0  0  0  0  0
    5.9564    1.7193    0.0000 O   0  0  0  0  0  0  0  0  0  0  0  0
    4.0689    4.6506    0.0000 C   0  0  0  0  0  0  0  0  0  0  0  0
    4.4394    3.1733    0.0000 C   0  0  0  0  0  0  0  0  0  0  0  0
    5.9777    3.1600    0.0000 C   0  0  0  0  0  0  0  0  0  0  0  0
    6.5295    4.6109    0.0000 C   0  0  0  0  0  0  0  0  0  0  0  0
    5.3626    5.5879    0.0000 O   0  0  0  0  0  0  0  0  0  0  0  0
    2.6378    5.1715    0.0000 C   0  0  0  0  0  0  0  0  0  0  0  0
    8.0047    4.9895    0.0000 R#  0  0  0  0  0  0  0  0  0  0  0  0
    1.4711    4.1925    0.0000 O   0  0  0  0  0  0  0  0  0  0  0  0
    0.0000    4.5867    0.0000 R#  0  0  0  0  0  0  0  0  0  0  0  0
    2.2162    2.4347    0.0000 C   0  0  0  0  0  0  0  0  0  0  0  0
    4.0452    1.7022    0.0000 O   0  0  0  0  0  0  0  0  0  0  0  0
    4.0452    0.1792    0.0000 R#  0  0  0  0  0  0  0  0  0  0  0  0
    2.0210    0.9243    0.0000 O   0  0  0  0  0  0  0  0  0  0  0  0
    3.2314    0.0000    0.0000 C   0  0  0  0  0  0  0  0  0  0  0  0
 15 16  1  0  0  0  0
  1  2  1  0  0  0  0
  3  4  1  0  0  0  0
  4  5  1  0  0  0  0
  5  6  1  0  0  0  0
  6  7  1  0  0  0  0
  3  7  1  0  0  0  0
  3  8  1  1  0  0  0
  6  9  1  1  0  0  0
  8 10  1  0  0  0  0
  3  1  1  0  0  0  0
  5  2  1  6  0  0  0
 10 11  1  0  0  0  0
  1 12  1  6  0  0  0
  4 13  1  6  0  0  0
 13 14  1  0  0  0  0
 12 15  1  0  0  0  0
A    9
R3
A   11
R1
A   14
R2
M  END

>  <symbol>
Rcmoe

>  <m_abbr>
Rcmoe

>  <m_type>
rna

>  <m_subtype>
natural

>  <m_RgroupIdx>
10,13,8

>  <m_Rgroups>
H,H,OH

$$$$

MolEngine07221613482D

 14 15  0  0  0  0            999 V2000
    1.7527    5.5939    0.0000 C   0  0  0  0  0  0  0  0  0  0  0  0
    1.4711    7.0907    0.0000 O   0  0  0  0  0  0  0  0  0  0  0  0
    2.6359    3.9373    0.0000 C   0  0  0  0  0  0  0  0  0  0  0  0
    5.0760    2.1603    0.0000 O   0  0  0  0  0  0  0  0  0  0  0  0
    3.1886    5.0916    0.0000 C   0  0  0  0  0  0  0  0  0  0  0  0
    5.0973    3.6010    0.0000 C   0  0  0  0  0  0  0  0  0  0  0  0
    5.6491    5.0519    0.0000 C   0  0  0  0  0  0  0  0  0  0  0  0
    4.4822    6.0289    0.0000 O   0  0  0  0  0  0  0  0  0  0  0  0
    3.5110    1.5230    0.0000 O   0  0  0  0  0  0  0  0  0  0  0  0
    7.1243    5.4305    0.0000 R#  0  0  0  0  0  0  0  0  0  0  0  0
    2.6786    2.7617    0.0000 N   0  0  0  0  0  0  0  0  0  0  0  0
    3.5590    3.6144    0.0000 C   0  0  0  0  0  0  0  0  0  0  0  0
    0.0000    7.4849    0.0000 R#  0  0  0  0  0  0  0  0  0  0  0  0
    3.5110    0.0000    0.0000 R#  0  0  0  0  0  0  0  0  0  0  0  0
  4 11  1  0  0  0  0
  5  1  1  1  0  0  0
  1  2  1  0  0  0  0
  5 12  1  0  0  0  0
 12  6  1  0  0  0  0
  6  7  1  0  0  0  0
  7  8  1  0  0  0  0
  8  5  1  0  0  0  0
  7 10  1  1  0  0  0
  5  3  1  6  0  0  0
  6  4  1  6  0  0  0
 11  3  1  0  0  0  0
 12  9  1  6  0  0  0
  2 13  1  0  0  0  0
  9 14  1  0  0  0  0
A   10
R3
A   13
R1
A   14
R2
M  END

>  <symbol>
bnanc

>  <m_abbr>
bnanc

>  <m_type>
rna

>  <m_subtype>
natural

>  <m_RgroupIdx>
12,13,9

>  <m_Rgroups>
H,H,OH

$$$$

MolEngine07221613482D

 15 16  0  0  0  0            999 V2000
    1.7527    5.5939    0.0000 C   0  0  0  0  0  0  0  0  0  0  0  0
    1.4711    7.0907    0.0000 O   0  0  0  0  0  0  0  0  0  0  0  0
    2.6359    3.9373    0.0000 C   0  0  0  0  0  0  0  0  0  0  0  0
    5.0760    2.1603    0.0000 O   0  0  0  0  0  0  0  0  0  0  0  0
    3.1886    5.0916    0.0000 C   0  0  0  0  0  0  0  0  0  0  0  0
    5.0973    3.6010    0.0000 C   0  0  0  0  0  0  0  0  0  0  0  0
    5.6492    5.0519    0.0000 C   0  0  0  0  0  0  0  0  0  0  0  0
    4.4822    6.0289    0.0000 O   0  0  0  0  0  0  0  0  0  0  0  0
    3.5110    1.5230    0.0000 O   0  0  0  0  0  0  0  0  0  0  0  0
    7.1243    5.4305    0.0000 R#  0  0  0  0  0  0  0  0  0  0  0  0
    2.6786    2.7617    0.0000 N   0  0  0  0  0  0  0  0  0  0  0  0
    3.5590    3.6143    0.0000 C   0  0  0  0  0  0  0  0  0  0  0  0
    0.0000    7.4849    0.0000 R#  0  0  0  0  0  0  0  0  0  0  0  0
    3.5110    0.0000    0.0000 R#  0  0  0  0  0  0  0  0  0  0  0  0
    1.4950    1.8033    0.0000 C   0  0  0  0  0  0  0  0  0  0  0  0
  4 11  1  0  0  0  0
  5  1  1  1  0  0  0
  1  2  1  0  0  0  0
  5 12  1  0  0  0  0
 12  6  1  0  0  0  0
  6  7  1  0  0  0  0
  7  8  1  0  0  0  0
  8  5  1  0  0  0  0
  7 10  1  1  0  0  0
  5  3  1  6  0  0  0
  6  4  1  6  0  0  0
 11  3  1  0  0  0  0
 12  9  1  6  0  0  0
  2 13  1  0  0  0  0
  9 14  1  0  0  0  0
 11 15  1  0  0  0  0
A   10
R3
A   13
R1
A   14
R2
M  END

>  <symbol>
bnancm

>  <m_abbr>
bnancm

>  <m_type>
rna

>  <m_subtype>
natural

>  <m_RgroupIdx>
12,13,9

>  <m_Rgroups>
H,H,OH

$$$$

MolEngine07221613482D

 13 13  0  0  0  0            999 V2000
    3.9168    4.1935    0.0000 C   0  0  0  0  0  0  0  0  0  0  0  0
    4.2872    2.7162    0.0000 C   0  0  0  0  0  0  0  0  0  0  0  0
    5.8256    2.7028    0.0000 C   0  0  0  0  0  0  0  0  0  0  0  0
    6.3774    4.1538    0.0000 C   0  0  0  0  0  0  0  0  0  0  0  0
    5.2105    5.1307    0.0000 O   0  0  0  0  0  0  0  0  0  0  0  0
    3.3407    1.5230    0.0000 O   0  0  0  0  0  0  0  0  0  0  0  0
    2.4857    4.7143    0.0000 C   0  0  0  0  0  0  0  0  0  0  0  0
    7.8526    4.5324    0.0000 R#  0  0  0  0  0  0  0  0  0  0  0  0
    1.3190    3.7354    0.0000 O   0  0  0  0  0  0  0  0  0  0  0  0
    0.0000    4.4969    0.0000 R#  0  0  0  0  0  0  0  0  0  0  0  0
    3.3407    0.0000    0.0000 R#  0  0  0  0  0  0  0  0  0  0  0  0
    2.8161    3.1104    0.0000 C   0  0  0  0  0  0  0  0  0  0  0  0
    6.6847    1.4453    0.0000 O   0  0  0  0  0  0  0  0  0  0  0  0
  1  2  1  0  0  0  0
  2  3  1  0  0  0  0
  3  4  1  0  0  0  0
  4  5  1  0  0  0  0
  5  1  1  0  0  0  0
  2  6  1  6  0  0  0
  1  7  1  1  0  0  0
  4  8  1  1  0  0  0
  7  9  1  0  0  0  0
  9 10  1  0  0  0  0
  6 11  1  0  0  0  0
  2 12  1  1  0  0  0
  3 13  1  6  0  0  0
A    8
R3
A   10
R1
A   11
R2
M  END

>  <symbol>
Bcm3r

>  <m_abbr>
Bcm3r

>  <m_type>
rna

>  <m_subtype>
natural

>  <m_RgroupIdx>
9,10,7

>  <m_Rgroups>
H,H,OH

$$$$

MolEngine07221613482D

 14 15  0  0  0  0            999 V2000
    3.8279    2.8420    0.0000 C   0  0  0  0  0  0  0  0  0  0  0  0
    5.3509    2.8420    0.0000 C   0  0  0  0  0  0  0  0  0  0  0  0
    5.8172    4.2855    0.0000 C   0  0  0  0  0  0  0  0  0  0  0  0
    4.5807    5.1747    0.0000 O   0  0  0  0  0  0  0  0  0  0  0  0
    3.3614    4.2855    0.0000 C   0  0  0  0  0  0  0  0  0  0  0  0
    7.5102    4.8345    0.0000 R#  0  0  0  0  0  0  0  0  0  0  0  0
    3.3614    5.3854    0.0000 C   0  0  0  0  0  0  0  0  0  0  0  0
    5.2977    3.9576    0.0000 O   0  0  0  0  0  0  0  0  0  0  0  0
    2.2845    3.2087    0.0000 C   0  0  0  0  0  0  0  0  0  0  0  0
    3.0664    1.5230    0.0000 O   0  0  0  0  0  0  0  0  0  0  0  0
    0.7615    3.2087    0.0000 O   0  0  0  0  0  0  0  0  0  0  0  0
    2.5999    6.7043    0.0000 C   0  0  0  0  0  0  0  0  0  0  0  0
    0.0000    4.5276    0.0000 R#  0  0  0  0  0  0  0  0  0  0  0  0
    3.0664    0.0000    0.0000 R#  0  0  0  0  0  0  0  0  0  0  0  0
  1  2  1  0  0  0  0
  2  3  1  0  0  0  0
  3  4  1  0  0  0  0
  4  5  1  0  0  0  0
  1  5  1  0  0  0  0
  3  6  1  1  0  0  0
  5  7  1  0  0  0  0
  7  8  1  0  0  0  0
  2  8  1  1  0  0  0
  5  9  1  6  0  0  0
  1 10  1  1  0  0  0
  9 11  1  0  0  0  0
  7 12  1  6  0  0  0
 11 13  1  0  0  0  0
 10 14  1  0  0  0  0
A    6
R3
A   13
R1
A   14
R2
M  END

>  <symbol>
Sm6ALlna

>  <m_abbr>
Sm6ALlna

>  <m_type>
rna

>  <m_subtype>
natural

>  <m_RgroupIdx>
12,13,5

>  <m_Rgroups>
H,H,OH

$$$$

MolEngine07221613482D

 15 16  0  0  0  0            999 V2000
    3.6218    2.6695    0.0000 C   0  0  0  0  0  0  0  0  0  0  0  0
    5.9564    1.3680    0.0000 O   0  0  0  0  0  0  0  0  0  0  0  0
    4.0689    4.2992    0.0000 C   0  0  0  0  0  0  0  0  0  0  0  0
    4.4393    2.8219    0.0000 C   0  0  0  0  0  0  0  0  0  0  0  0
    5.9777    2.8086    0.0000 C   0  0  0  0  0  0  0  0  0  0  0  0
    6.5295    4.2595    0.0000 C   0  0  0  0  0  0  0  0  0  0  0  0
    5.3626    5.2365    0.0000 O   0  0  0  0  0  0  0  0  0  0  0  0
    3.9159    1.5230    0.0000 O   0  0  0  0  0  0  0  0  0  0  0  0
    2.6378    4.8201    0.0000 C   0  0  0  0  0  0  0  0  0  0  0  0
    8.0046    4.6381    0.0000 R#  0  0  0  0  0  0  0  0  0  0  0  0
    1.4711    3.8411    0.0000 O   0  0  0  0  0  0  0  0  0  0  0  0
    0.0000    4.2353    0.0000 R#  0  0  0  0  0  0  0  0  0  0  0  0
    3.9159    0.0000    0.0000 R#  0  0  0  0  0  0  0  0  0  0  0  0
    2.3733    6.3200    0.0000 C   0  0  0  0  0  0  0  0  0  0  0  0
    1.0543    7.0815    0.0000 C   0  0  0  0  0  0  0  0  0  0  0  0
  1  2  1  0  0  0  0
  3  4  1  0  0  0  0
  4  5  1  0  0  0  0
  5  6  1  0  0  0  0
  6  7  1  0  0  0  0
  7  3  1  0  0  0  0
  4  8  1  6  0  0  0
  3  9  1  0  0  0  0
  6 10  1  1  0  0  0
  9 11  1  0  0  0  0
  3  1  1  6  0  0  0
  5  2  1  6  0  0  0
 11 12  1  0  0  0  0
  8 13  1  0  0  0  0
  9 14  1  1  0  0  0
 14 15  2  0  0  0  0
A   10
R3
A   12
R1
A   13
R2
M  END

>  <symbol>
Svinyl5lna

>  <m_abbr>
Svinyl5lna

>  <m_type>
rna

>  <m_subtype>
natural

>  <m_RgroupIdx>
11,12,9

>  <m_Rgroups>
H,H,OH

$$$$

MolEngine07221613482D

 13 13  0  0  0  0            999 V2000
    4.5690    5.4799    0.0000 O   0  0  0  0  0  0  0  0  0  0  0  0
    3.8075    4.1609    0.0000 C   0  0  0  0  0  0  0  0  0  0  0  0
    4.5690    2.8420    0.0000 C   0  0  0  0  0  0  0  0  0  0  0  0
    6.0920    2.8420    0.0000 C   0  0  0  0  0  0  0  0  0  0  0  0
    6.8534    4.1609    0.0000 C   0  0  0  0  0  0  0  0  0  0  0  0
    6.0920    5.4799    0.0000 C   0  0  0  0  0  0  0  0  0  0  0  0
    8.3764    4.1609    0.0000 R#  0  0  0  0  0  0  0  0  0  0  0  0
    6.8535    1.5230    0.0000 F   0  0  0  0  0  0  0  0  0  0  0  0
    3.8075    1.5230    0.0000 O   0  0  0  0  0  0  0  0  0  0  0  0
    2.2845    4.1609    0.0000 C   0  0  0  0  0  0  0  0  0  0  0  0
    1.5230    2.8420    0.0000 O   0  0  0  0  0  0  0  0  0  0  0  0
    3.8075    0.0000    0.0000 R#  0  0  0  0  0  0  0  0  0  0  0  0
    0.0000    2.8420    0.0000 R#  0  0  0  0  0  0  0  0  0  0  0  0
  1  2  1  0  0  0  0
  2  3  1  0  0  0  0
  3  4  1  0  0  0  0
  4  5  1  0  0  0  0
  5  6  1  0  0  0  0
  6  1  1  0  0  0  0
  5  7  1  1  0  0  0
  4  8  1  6  0  0  0
  3  9  1  6  0  0  0
  2 10  1  1  0  0  0
 10 11  1  0  0  0  0
  9 12  1  0  0  0  0
 11 13  1  0  0  0  0
A    7
R3
A   12
R2
A   13
R1
M  END

>  <symbol>
fhna

>  <m_abbr>
fhna

>  <m_type>
rna

>  <m_subtype>
natural

>  <m_RgroupIdx>
12,11,6

>  <m_Rgroups>
H,H,OH

$$$$

MolEngine07221613482D

 15 16  0  0  0  0            999 V2000
    3.6219    2.8417    0.0000 C   0  0  0  0  0  0  0  0  0  0  0  0
    5.9564    1.5401    0.0000 O   0  0  0  0  0  0  0  0  0  0  0  0
    4.0689    4.4714    0.0000 C   0  0  0  0  0  0  0  0  0  0  0  0
    4.4393    2.9942    0.0000 C   0  0  0  0  0  0  0  0  0  0  0  0
    5.9777    2.9808    0.0000 C   0  0  0  0  0  0  0  0  0  0  0  0
    6.5295    4.4317    0.0000 C   0  0  0  0  0  0  0  0  0  0  0  0
    5.3626    5.4087    0.0000 O   0  0  0  0  0  0  0  0  0  0  0  0
    2.6378    4.9923    0.0000 C   0  0  0  0  0  0  0  0  0  0  0  0
    8.0047    4.8103    0.0000 R#  0  0  0  0  0  0  0  0  0  0  0  0
    1.4711    4.0133    0.0000 O   0  0  0  0  0  0  0  0  0  0  0  0
    0.0000    4.4075    0.0000 R#  0  0  0  0  0  0  0  0  0  0  0  0
    4.0452    1.5231    0.0000 O   0  0  0  0  0  0  0  0  0  0  0  0
    4.0452    0.0000    0.0000 R#  0  0  0  0  0  0  0  0  0  0  0  0
    2.5449    1.7647    0.0000 C   0  0  0  0  0  0  0  0  0  0  0  0
    2.3052    3.6071    0.0000 C   0  0  0  0  0  0  0  0  0  0  0  0
  1  2  1  0  0  0  0
  3  4  1  0  0  0  0
  4  5  1  0  0  0  0
  5  6  1  0  0  0  0
  6  7  1  0  0  0  0
  3  7  1  6  0  0  0
  3  8  1  1  0  0  0
  6  9  1  1  0  0  0
  8 10  1  0  0  0  0
  3  1  1  0  0  0  0
  5  2  1  6  0  0  0
 10 11  1  0  0  0  0
  4 12  1  6  0  0  0
 12 13  1  0  0  0  0
  1 14  1  0  0  0  0
  1 15  1  0  0  0  0
A    9
R3
A   11
R1
A   13
R2
M  END

>  <symbol>
ciPr

>  <m_abbr>
ciPr

>  <m_type>
rna

>  <m_subtype>
natural

>  <m_RgroupIdx>
10,12,8

>  <m_Rgroups>
H,H,OH

$$$$

MolEngine07221613482D

 14 15  0  0  0  0            999 V2000
    3.6219    2.8416    0.0000 C   0  0  0  0  0  0  0  0  0  0  0  0
    5.9564    1.5401    0.0000 C   0  0  0  0  0  0  0  0  0  0  0  0
    4.0689    4.4713    0.0000 C   0  0  0  0  0  0  0  0  0  0  0  0
    4.4394    2.9941    0.0000 C   0  0  0  0  0  0  0  0  0  0  0  0
    5.9777    2.9807    0.0000 C   0  0  0  0  0  0  0  0  0  0  0  0
    6.5295    4.4317    0.0000 C   0  0  0  0  0  0  0  0  0  0  0  0
    5.3626    5.4086    0.0000 O   0  0  0  0  0  0  0  0  0  0  0  0
    2.6378    4.9922    0.0000 C   0  0  0  0  0  0  0  0  0  0  0  0
    8.0047    4.8102    0.0000 R#  0  0  0  0  0  0  0  0  0  0  0  0
    1.4711    4.0133    0.0000 O   0  0  0  0  0  0  0  0  0  0  0  0
    0.0000    4.4075    0.0000 R#  0  0  0  0  0  0  0  0  0  0  0  0
    4.0452    1.5230    0.0000 O   0  0  0  0  0  0  0  0  0  0  0  0
    4.0452    0.0000    0.0000 R#  0  0  0  0  0  0  0  0  0  0  0  0
    6.7180    0.2212    0.0000 C   0  0  0  0  0  0  0  0  0  0  0  0
  1  2  1  0  0  0  0
  3  4  1  0  0  0  0
  4  5  1  0  0  0  0
  5  6  1  0  0  0  0
  6  7  1  0  0  0  0
  3  7  1  6  0  0  0
  3  8  1  1  0  0  0
  6  9  1  1  0  0  0
  8 10  1  0  0  0  0
  3  1  1  0  0  0  0
  5  2  1  6  0  0  0
 10 11  1  0  0  0  0
  4 12  1  6  0  0  0
 12 13  1  0  0  0  0
  2 14  2  0  0  0  0
A    9
R3
A   11
R1
A   13
R2
M  END

>  <symbol>
meclna

>  <m_abbr>
meclna

>  <m_type>
rna

>  <m_subtype>
natural

>  <m_RgroupIdx>
10,12,8

>  <m_Rgroups>
H,H,OH

$$$$

MolEngine07221613482D

 14 15  0  0  0  0            999 V2000
    3.9458    4.2992    0.0000 C   0  0  0  0  0  0  0  0  0  0  0  0
    4.3162    2.8219    0.0000 C   0  0  0  0  0  0  0  0  0  0  0  0
    5.8546    2.8085    0.0000 C   0  0  0  0  0  0  0  0  0  0  0  0
    6.4064    4.2595    0.0000 C   0  0  0  0  0  0  0  0  0  0  0  0
    5.2395    5.2364    0.0000 O   0  0  0  0  0  0  0  0  0  0  0  0
    3.7928    1.5230    0.0000 O   0  0  0  0  0  0  0  0  0  0  0  0
    7.8816    4.6381    0.0000 R#  0  0  0  0  0  0  0  0  0  0  0  0
    3.7928    0.0000    0.0000 R#  0  0  0  0  0  0  0  0  0  0  0  0
    3.9319    5.3775    0.0000 C   0  0  0  0  0  0  0  0  0  0  0  0
    5.8031    3.9370    0.0000 O   0  0  0  0  0  0  0  0  0  0  0  0
    2.4355    4.1028    0.0000 C   0  0  0  0  0  0  0  0  0  0  0  0
    1.5103    5.3125    0.0000 O   0  0  0  0  0  0  0  0  0  0  0  0
    0.0000    5.1161    0.0000 R#  0  0  0  0  0  0  0  0  0  0  0  0
    1.8505    2.6966    0.0000 C   0  0  0  0  0  0  0  0  0  0  0  0
  1  2  1  0  0  0  0
  2  3  1  0  0  0  0
  3  4  1  0  0  0  0
  4  5  1  0  0  0  0
  5  1  1  0  0  0  0
  2  6  1  1  0  0  0
  4  7  1  1  0  0  0
  6  8  1  0  0  0  0
  1  9  1  1  0  0  0
  3 10  1  1  0  0  0
  9 10  1  0  0  0  0
  1 11  1  0  0  0  0
 11 12  1  0  0  0  0
 12 13  1  0  0  0  0
 11 14  1  6  0  0  0
A    7
R3
A    8
R2
A   13
R1
M  END

>  <symbol>
Sm5ALlna

>  <m_abbr>
Sm5ALlna

>  <m_type>
rna

>  <m_subtype>
natural

>  <m_RgroupIdx>
12,7,6

>  <m_Rgroups>
H,H,OH

$$$$

MolEngine07221613482D

 14 15  0  0  0  0            999 V2000
    3.9458    4.2992    0.0000 C   0  0  0  0  0  0  0  0  0  0  0  0
    4.3162    2.8219    0.0000 C   0  0  0  0  0  0  0  0  0  0  0  0
    5.8546    2.8086    0.0000 C   0  0  0  0  0  0  0  0  0  0  0  0
    6.4064    4.2595    0.0000 C   0  0  0  0  0  0  0  0  0  0  0  0
    5.2394    5.2364    0.0000 O   0  0  0  0  0  0  0  0  0  0  0  0
    3.7928    1.5230    0.0000 O   0  0  0  0  0  0  0  0  0  0  0  0
    7.8816    4.6381    0.0000 R#  0  0  0  0  0  0  0  0  0  0  0  0
    3.7928    0.0000    0.0000 R#  0  0  0  0  0  0  0  0  0  0  0  0
    3.9318    5.3775    0.0000 C   0  0  0  0  0  0  0  0  0  0  0  0
    5.8031    3.9370    0.0000 O   0  0  0  0  0  0  0  0  0  0  0  0
    2.4355    4.1028    0.0000 C   0  0  0  0  0  0  0  0  0  0  0  0
    1.5103    5.3126    0.0000 O   0  0  0  0  0  0  0  0  0  0  0  0
    0.0000    5.1162    0.0000 R#  0  0  0  0  0  0  0  0  0  0  0  0
    1.8504    2.6967    0.0000 C   0  0  0  0  0  0  0  0  0  0  0  0
  1  2  1  0  0  0  0
  2  3  1  0  0  0  0
  3  4  1  0  0  0  0
  4  5  1  0  0  0  0
  5  1  1  0  0  0  0
  2  6  1  1  0  0  0
  4  7  1  1  0  0  0
  6  8  1  0  0  0  0
  1  9  1  1  0  0  0
  3 10  1  1  0  0  0
  9 10  1  0  0  0  0
  1 11  1  0  0  0  0
 11 12  1  0  0  0  0
 12 13  1  0  0  0  0
 11 14  1  1  0  0  0
A    7
R3
A    8
R2
A   13
R1
M  END

>  <symbol>
Rm5ALlna

>  <m_abbr>
Rm5ALlna

>  <m_type>
rna

>  <m_subtype>
natural

>  <m_RgroupIdx>
12,7,6

>  <m_Rgroups>
H,H,OH

$$$$

MolEngine07221613482D

 14 15  0  0  0  0            999 V2000
    3.9458    4.1088    0.0000 C   0  0  0  0  0  0  0  0  0  0  0  0
    4.3162    2.6315    0.0000 C   0  0  0  0  0  0  0  0  0  0  0  0
    5.8545    2.6182    0.0000 C   0  0  0  0  0  0  0  0  0  0  0  0
    6.4063    4.0691    0.0000 C   0  0  0  0  0  0  0  0  0  0  0  0
    5.2394    5.0461    0.0000 O   0  0  0  0  0  0  0  0  0  0  0  0
    3.3358    1.5230    0.0000 O   0  0  0  0  0  0  0  0  0  0  0  0
    7.8815    4.4477    0.0000 R#  0  0  0  0  0  0  0  0  0  0  0  0
    3.3359    0.0000    0.0000 R#  0  0  0  0  0  0  0  0  0  0  0  0
    3.9318    5.1872    0.0000 C   0  0  0  0  0  0  0  0  0  0  0  0
    5.8030    3.7466    0.0000 O   0  0  0  0  0  0  0  0  0  0  0  0
    2.4355    3.9124    0.0000 C   0  0  0  0  0  0  0  0  0  0  0  0
    1.5103    5.1222    0.0000 O   0  0  0  0  0  0  0  0  0  0  0  0
    0.0000    4.9258    0.0000 R#  0  0  0  0  0  0  0  0  0  0  0  0
    4.9358    1.2403    0.0000 C   0  0  0  0  0  0  0  0  0  0  0  0
  1  2  1  0  0  0  0
  2  3  1  0  0  0  0
  3  4  1  0  0  0  0
  4  5  1  0  0  0  0
  5  1  1  0  0  0  0
  2  6  1  1  0  0  0
  4  7  1  1  0  0  0
  6  8  1  0  0  0  0
  1  9  1  1  0  0  0
  3 10  1  1  0  0  0
  9 10  1  0  0  0  0
  1 11  1  0  0  0  0
 11 12  1  0  0  0  0
 12 13  1  0  0  0  0
  2 14  1  6  0  0  0
A    7
R3
A    8
R2
A   13
R1
M  END

>  <symbol>
m3ALlna

>  <m_abbr>
m3ALlna

>  <m_type>
rna

>  <m_subtype>
natural

>  <m_RgroupIdx>
12,7,6

>  <m_Rgroups>
H,H,OH

$$$$

MolEngine07221613482D

 14 14  0  0  0  0            999 V2000
    4.5690    5.4799    0.0000 O   0  0  0  0  0  0  0  0  0  0  0  0
    3.8075    4.1609    0.0000 C   0  0  0  0  0  0  0  0  0  0  0  0
    4.5690    2.8419    0.0000 C   0  0  0  0  0  0  0  0  0  0  0  0
    6.0920    2.8419    0.0000 C   0  0  0  0  0  0  0  0  0  0  0  0
    6.8535    4.1609    0.0000 C   0  0  0  0  0  0  0  0  0  0  0  0
    6.0920    5.4799    0.0000 C   0  0  0  0  0  0  0  0  0  0  0  0
    8.3765    4.1609    0.0000 R#  0  0  0  0  0  0  0  0  0  0  0  0
    3.8075    1.5230    0.0000 O   0  0  0  0  0  0  0  0  0  0  0  0
    2.2845    4.1609    0.0000 C   0  0  0  0  0  0  0  0  0  0  0  0
    1.5230    2.8419    0.0000 O   0  0  0  0  0  0  0  0  0  0  0  0
    3.8075    0.0000    0.0000 R#  0  0  0  0  0  0  0  0  0  0  0  0
    0.0000    2.8419    0.0000 R#  0  0  0  0  0  0  0  0  0  0  0  0
    6.8535    1.5230    0.0000 F   0  0  0  0  0  0  0  0  0  0  0  0
    1.5230    5.4799    0.0000 C   0  0  0  0  0  0  0  0  0  0  0  0
  2  1  1  1  0  0  0
  2  3  1  0  0  0  0
  3  4  1  0  0  0  0
  4  5  1  0  0  0  0
  5  6  1  0  0  0  0
  6  1  1  0  0  0  0
  5  7  1  1  0  0  0
  4 13  1  6  0  0  0
  3  8  1  6  0  0  0
  2  9  1  0  0  0  0
  9 10  1  0  0  0  0
  8 11  1  0  0  0  0
 10 12  1  0  0  0  0
  9 14  1  1  0  0  0
A    7
R3
A   11
R2
A   12
R1
M  END

>  <symbol>
Sm6fhna

>  <m_abbr>
Sm6fhna

>  <m_type>
rna

>  <m_subtype>
natural

>  <m_RgroupIdx>
11,10,6

>  <m_Rgroups>
H,H,OH

$$$$

MolEngine07221613482D

 13 13  0  0  0  0            999 V2000
    4.5690    5.4799    0.0000 C   0  0  0  0  0  0  0  0  0  0  0  0
    3.8075    4.1609    0.0000 C   0  0  0  0  0  0  0  0  0  0  0  0
    4.5690    2.8419    0.0000 C   0  0  0  0  0  0  0  0  0  0  0  0
    6.0920    2.8419    0.0000 C   0  0  0  0  0  0  0  0  0  0  0  0
    6.8535    4.1609    0.0000 C   0  0  0  0  0  0  0  0  0  0  0  0
    6.0920    5.4799    0.0000 C   0  0  0  0  0  0  0  0  0  0  0  0
    8.3765    4.1609    0.0000 R#  0  0  0  0  0  0  0  0  0  0  0  0
    3.8075    1.5230    0.0000 O   0  0  0  0  0  0  0  0  0  0  0  0
    2.2845    4.1609    0.0000 C   0  0  0  0  0  0  0  0  0  0  0  0
    1.5231    2.8419    0.0000 O   0  0  0  0  0  0  0  0  0  0  0  0
    3.8075    0.0000    0.0000 R#  0  0  0  0  0  0  0  0  0  0  0  0
    0.0000    2.8419    0.0000 R#  0  0  0  0  0  0  0  0  0  0  0  0
    6.8535    1.5230    0.0000 F   0  0  0  0  0  0  0  0  0  0  0  0
  1  2  1  0  0  0  0
  2  3  1  0  0  0  0
  3  4  1  0  0  0  0
  4  5  1  0  0  0  0
  5  6  1  0  0  0  0
  6  1  2  0  0  0  0
  5  7  1  1  0  0  0
  3  8  1  6  0  0  0
  2  9  1  1  0  0  0
  9 10  1  0  0  0  0
  8 11  1  0  0  0  0
 10 12  1  0  0  0  0
  4 13  1  6  0  0  0
A    7
R3
A   11
R2
A   12
R1
M  END

>  <symbol>
fcena

>  <m_abbr>
fcena

>  <m_type>
rna

>  <m_subtype>
natural

>  <m_RgroupIdx>
11,10,6

>  <m_Rgroups>
H,H,OH

$$$$

MolEngine07221613482D

 14 15  0  0  0  0            999 V2000
    3.6219    2.8416    0.0000 C   0  0  0  0  0  0  0  0  0  0  0  0
    5.9564    1.5401    0.0000 S   0  0  0  0  0  0  0  0  0  0  0  0
    4.0690    4.4714    0.0000 C   0  0  0  0  0  0  0  0  0  0  0  0
    4.4394    2.9941    0.0000 C   0  0  0  0  0  0  0  0  0  0  0  0
    5.9778    2.9808    0.0000 C   0  0  0  0  0  0  0  0  0  0  0  0
    6.5296    4.4317    0.0000 C   0  0  0  0  0  0  0  0  0  0  0  0
    5.3626    5.4086    0.0000 O   0  0  0  0  0  0  0  0  0  0  0  0
    2.6378    4.9923    0.0000 C   0  0  0  0  0  0  0  0  0  0  0  0
    8.0048    4.8103    0.0000 R#  0  0  0  0  0  0  0  0  0  0  0  0
    1.4711    4.0133    0.0000 O   0  0  0  0  0  0  0  0  0  0  0  0
    0.0000    4.4075    0.0000 R#  0  0  0  0  0  0  0  0  0  0  0  0
    4.0452    1.5230    0.0000 O   0  0  0  0  0  0  0  0  0  0  0  0
    4.0452    0.0000    0.0000 R#  0  0  0  0  0  0  0  0  0  0  0  0
    7.4794    1.5401    0.0000 O   0  0  0  0  0  0  0  0  0  0  0  0
  1  2  1  0  0  0  0
  3  4  1  0  0  0  0
  4  5  1  0  0  0  0
  5  6  1  0  0  0  0
  6  7  1  0  0  0  0
  3  7  1  6  0  0  0
  3  8  1  1  0  0  0
  6  9  1  1  0  0  0
  8 10  1  0  0  0  0
  3  1  1  0  0  0  0
  5  2  1  6  0  0  0
 10 11  1  0  0  0  0
  4 12  1  6  0  0  0
 12 13  1  0  0  0  0
  2 14  2  0  0  0  0
A    9
R3
A   11
R1
A   13
R2
M  END

>  <symbol>
Rso2lna

>  <m_abbr>
Rso2lna

>  <m_type>
rna

>  <m_subtype>
natural

>  <m_RgroupIdx>
10,12,8

>  <m_Rgroups>
H,H,OH

$$$$

MolEngine07221613482D

 14 15  0  0  0  0            999 V2000
    3.6218    2.8416    0.0000 C   0  0  0  0  0  0  0  0  0  0  0  0
    5.9563    1.5400    0.0000 S   0  0  0  0  0  0  0  0  0  0  0  0
    4.0689    4.4713    0.0000 C   0  0  0  0  0  0  0  0  0  0  0  0
    4.4393    2.9941    0.0000 C   0  0  0  0  0  0  0  0  0  0  0  0
    5.9777    2.9807    0.0000 C   0  0  0  0  0  0  0  0  0  0  0  0
    6.5295    4.4317    0.0000 C   0  0  0  0  0  0  0  0  0  0  0  0
    5.3625    5.4086    0.0000 O   0  0  0  0  0  0  0  0  0  0  0  0
    2.6378    4.9922    0.0000 C   0  0  0  0  0  0  0  0  0  0  0  0
    8.0047    4.8102    0.0000 R#  0  0  0  0  0  0  0  0  0  0  0  0
    1.4711    4.0132    0.0000 O   0  0  0  0  0  0  0  0  0  0  0  0
    0.0000    4.4074    0.0000 R#  0  0  0  0  0  0  0  0  0  0  0  0
    4.0451    1.5230    0.0000 O   0  0  0  0  0  0  0  0  0  0  0  0
    4.0451    0.0000    0.0000 R#  0  0  0  0  0  0  0  0  0  0  0  0
    5.1948    0.2211    0.0000 O   0  0  0  0  0  0  0  0  0  0  0  0
  1  2  1  0  0  0  0
  3  4  1  0  0  0  0
  4  5  1  0  0  0  0
  5  6  1  0  0  0  0
  6  7  1  0  0  0  0
  3  7  1  6  0  0  0
  3  8  1  1  0  0  0
  6  9  1  1  0  0  0
  8 10  1  0  0  0  0
  3  1  1  0  0  0  0
  5  2  1  6  0  0  0
 10 11  1  0  0  0  0
  4 12  1  6  0  0  0
 12 13  1  0  0  0  0
  2 14  2  0  0  0  0
A    9
R3
A   11
R1
A   13
R2
M  END

>  <symbol>
Sso2lna

>  <m_abbr>
Sso2lna

>  <m_type>
rna

>  <m_subtype>
natural

>  <m_RgroupIdx>
10,12,8

>  <m_Rgroups>
H,H,OH

$$$$

MolEngine07221613482D

 17 17  0  0  0  0            999 V2000
    4.0295    7.3041    0.0000 C   0  0  0  0  0  0  0  0  0  0  0  0
    4.4725    5.8469    0.0000 C   0  0  0  0  0  0  0  0  0  0  0  0
    5.9952    5.8180    0.0000 C   0  0  0  0  0  0  0  0  0  0  0  0
    6.4933    7.2572    0.0000 C   0  0  0  0  0  0  0  0  0  0  0  0
    5.2785    8.1757    0.0000 O   0  0  0  0  0  0  0  0  0  0  0  0
    2.5903    7.8022    0.0000 C   0  0  0  0  0  0  0  0  0  0  0  0
    3.5540    4.6321    0.0000 O   0  0  0  0  0  0  0  0  0  0  0  0
    1.4393    6.8048    0.0000 O   0  0  0  0  0  0  0  0  0  0  0  0
    0.0000    7.3029    0.0000 R#  0  0  0  0  0  0  0  0  0  0  0  0
    3.6048    3.1099    0.0000 R#  0  0  0  0  0  0  0  0  0  0  0  0
    6.8668    4.5690    0.0000 O   0  0  0  0  0  0  0  0  0  0  0  0
    7.9505    7.7002    0.0000 R#  0  0  0  0  0  0  0  0  0  0  0  0
    6.8668    3.0460    0.0000 C   0  0  0  0  0  0  0  0  0  0  0  0
    8.1858    2.2845    0.0000 C   0  0  0  0  0  0  0  0  0  0  0  0
    8.1858    0.7615    0.0000 O   0  0  0  0  0  0  0  0  0  0  0  0
    9.5047    0.0000    0.0000 C   0  0  0  0  0  0  0  0  0  0  0  0
    2.3020    9.2977    0.0000 C   0  0  0  0  0  0  0  0  0  0  0  0
  1  2  1  0  0  0  0
  2  3  1  0  0  0  0
  3  4  1  0  0  0  0
  4  5  1  0  0  0  0
  1  5  1  1  0  0  0
  1  6  1  0  0  0  0
  2  7  1  6  0  0  0
  6  8  1  0  0  0  0
  8  9  1  0  0  0  0
  7 10  1  0  0  0  0
  3 11  1  6  0  0  0
  4 12  1  1  0  0  0
 11 13  1  0  0  0  0
 13 14  1  0  0  0  0
 14 15  1  0  0  0  0
 15 16  1  0  0  0  0
  6 17  1  1  0  0  0
A    9
R1
A   10
R2
A   12
R3
M  END

>  <symbol>
Sm5moe

>  <m_abbr>
Sm5moe

>  <m_type>
rna

>  <m_subtype>
natural

>  <m_RgroupIdx>
8,9,11

>  <m_Rgroups>
H,H,OH

$$$$

MolEngine07221613482D

 17 17  0  0  0  0            999 V2000
    4.5690    8.5259    0.0000 O   0  0  0  0  0  0  0  0  0  0  0  0
    3.8076    7.2069    0.0000 C   0  0  0  0  0  0  0  0  0  0  0  0
    4.5690    5.8879    0.0000 C   0  0  0  0  0  0  0  0  0  0  0  0
    6.0921    5.8879    0.0000 C   0  0  0  0  0  0  0  0  0  0  0  0
    6.8536    7.2069    0.0000 C   0  0  0  0  0  0  0  0  0  0  0  0
    6.0921    8.5259    0.0000 C   0  0  0  0  0  0  0  0  0  0  0  0
    8.3765    7.2069    0.0000 R#  0  0  0  0  0  0  0  0  0  0  0  0
    3.8076    4.5690    0.0000 O   0  0  0  0  0  0  0  0  0  0  0  0
    2.2845    7.2069    0.0000 C   0  0  0  0  0  0  0  0  0  0  0  0
    1.5231    5.8879    0.0000 O   0  0  0  0  0  0  0  0  0  0  0  0
    3.8076    3.0460    0.0000 R#  0  0  0  0  0  0  0  0  0  0  0  0
    0.0000    5.8879    0.0000 R#  0  0  0  0  0  0  0  0  0  0  0  0
    6.8536    4.5690    0.0000 O   0  0  0  0  0  0  0  0  0  0  0  0
    6.8536    3.0460    0.0000 C   0  0  0  0  0  0  0  0  0  0  0  0
    8.1725    2.2845    0.0000 C   0  0  0  0  0  0  0  0  0  0  0  0
    8.1725    0.7615    0.0000 O   0  0  0  0  0  0  0  0  0  0  0  0
    9.4915    0.0000    0.0000 C   0  0  0  0  0  0  0  0  0  0  0  0
  1  2  1  0  0  0  0
  2  3  1  0  0  0  0
  3  4  1  0  0  0  0
  4  5  1  0  0  0  0
  5  6  1  0  0  0  0
  6  1  1  0  0  0  0
  5  7  1  1  0  0  0
  4 13  1  6  0  0  0
  3  8  1  6  0  0  0
  2  9  1  1  0  0  0
  9 10  1  0  0  0  0
  8 11  1  0  0  0  0
 10 12  1  0  0  0  0
 13 14  1  0  0  0  0
 14 15  1  0  0  0  0
 15 16  1  0  0  0  0
 16 17  1  0  0  0  0
A    7
R3
A   11
R2
A   12
R1
M  END

>  <symbol>
moe3ana

>  <m_abbr>
moe3ana

>  <m_type>
rna

>  <m_subtype>
natural

>  <m_RgroupIdx>
11,10,6

>  <m_Rgroups>
H,H,OH

$$$$

MolEngine07221613482D

 16 18  0  0  0  0            999 V2000
    3.3273    2.6755    0.0000 C   0  0  0  0  0  0  0  0  0  0  0  0
    4.8503    2.6695    0.0000 C   0  0  0  0  0  0  0  0  0  0  0  0
    5.3265    4.1161    0.0000 C   0  0  0  0  0  0  0  0  0  0  0  0
    4.0979    5.0160    0.0000 O   0  0  0  0  0  0  0  0  0  0  0  0
    2.8622    4.1257    0.0000 C   0  0  0  0  0  0  0  0  0  0  0  0
    2.8943    5.5961    0.0000 C   0  0  0  0  0  0  0  0  0  0  0  0
    4.7211    3.8336    0.0000 O   0  0  0  0  0  0  0  0  0  0  0  0
    6.7767    4.5812    0.0000 R#  0  0  0  0  0  0  0  0  0  0  0  0
    1.5521    6.4153    0.0000 C   0  0  0  0  0  0  0  0  0  0  0  0
    0.2303    5.6590    0.0000 C   0  0  0  0  0  0  0  0  0  0  0  0
    0.2244    4.1360    0.0000 C   0  0  0  0  0  0  0  0  0  0  0  0
    1.5402    3.3693    0.0000 C   0  0  0  0  0  0  0  0  0  0  0  0
    2.6927    1.3937    0.0000 O   0  0  0  0  0  0  0  0  0  0  0  0
    1.5342    1.8463    0.0000 O   0  0  0  0  0  0  0  0  0  0  0  0
    0.0000    0.9839    0.0000 R#  0  0  0  0  0  0  0  0  0  0  0  0
    3.3068    0.0000    0.0000 R#  0  0  0  0  0  0  0  0  0  0  0  0
  1  2  1  0  0  0  0
  2  3  1  0  0  0  0
  3  4  1  0  0  0  0
  5  4  1  6  0  0  0
  5  1  1  0  0  0  0
  5  6  1  0  0  0  0
  2  7  1  1  0  0  0
  3  8  1  1  0  0  0
  6  9  1  0  0  0  0
  9 10  1  0  0  0  0
 10 11  1  0  0  0  0
 11 12  1  0  0  0  0
 12  5  1  0  0  0  0
  1 13  1  1  0  0  0
 12 14  1  6  0  0  0
 14 15  1  0  0  0  0
 13 16  1  0  0  0  0
  6  7  1  1  0  0  0
A    8
R3
A   15
R1
A   16
R2
M  END

>  <symbol>
aLtrina1

>  <m_abbr>
aLtrina1

>  <m_type>
rna

>  <m_subtype>
natural

>  <m_RgroupIdx>
14,15,7

>  <m_Rgroups>
H,H,OH

$$$$

MolEngine07221613482D

 15 16  0  0  0  0            999 V2000
    3.8322    2.9941    0.0000 C   0  0  0  0  0  0  0  0  0  0  0  0
    5.3553    2.9941    0.0000 C   0  0  0  0  0  0  0  0  0  0  0  0
    5.8259    4.4428    0.0000 C   0  0  0  0  0  0  0  0  0  0  0  0
    4.5938    5.3380    0.0000 O   0  0  0  0  0  0  0  0  0  0  0  0
    3.3616    4.4428    0.0000 C   0  0  0  0  0  0  0  0  0  0  0  0
    2.6001    5.7617    0.0000 C   0  0  0  0  0  0  0  0  0  0  0  0
    1.0770    5.7617    0.0000 O   0  0  0  0  0  0  0  0  0  0  0  0
    3.4380    1.5231    0.0000 O   0  0  0  0  0  0  0  0  0  0  0  0
    6.5874    5.7617    0.0000 R#  0  0  0  0  0  0  0  0  0  0  0  0
    2.9700    2.9818    0.0000 C   0  0  0  0  0  0  0  0  0  0  0  0
    5.3578    1.5231    0.0000 N   0  0  0  0  0  0  0  0  0  0  0  0
    0.0000    6.8387    0.0000 R#  0  0  0  0  0  0  0  0  0  0  0  0
    3.4380    0.0000    0.0000 R#  0  0  0  0  0  0  0  0  0  0  0  0
    6.1167    0.2087    0.0000 O   0  0  0  0  0  0  0  0  0  0  0  0
    7.6345    0.2087    0.0000 C   0  0  0  0  0  0  0  0  0  0  0  0
  1  2  1  0  0  0  0
  2  3  1  0  0  0  0
  3  4  1  0  0  0  0
  5  4  1  6  0  0  0
  5  1  1  0  0  0  0
  5  6  1  1  0  0  0
  6  7  1  0  0  0  0
  3  9  1  1  0  0  0
  5 10  1  0  0  0  0
  2 11  1  6  0  0  0
 10 11  1  0  0  0  0
  1  8  1  6  0  0  0
 11 14  1  0  0  0  0
  7 12  1  0  0  0  0
  8 13  1  0  0  0  0
 14 15  1  0  0  0  0
A    9
R3
A   12
R1
A   13
R2
M  END

>  <symbol>
mon2lna

>  <m_abbr>
mon2lna

>  <m_type>
rna

>  <m_subtype>
natural

>  <m_RgroupIdx>
11,12,8

>  <m_Rgroups>
H,H,OH

$$$$

MolEngine07221613482D

 14 15  0  0  0  0            999 V2000
    3.8279    2.8419    0.0000 C   0  0  0  0  0  0  0  0  0  0  0  0
    5.3508    2.8419    0.0000 C   0  0  0  0  0  0  0  0  0  0  0  0
    5.8171    4.2855    0.0000 C   0  0  0  0  0  0  0  0  0  0  0  0
    4.5807    5.1747    0.0000 O   0  0  0  0  0  0  0  0  0  0  0  0
    3.3614    4.2855    0.0000 C   0  0  0  0  0  0  0  0  0  0  0  0
    7.5101    4.8343    0.0000 R#  0  0  0  0  0  0  0  0  0  0  0  0
    3.3614    5.8085    0.0000 C   0  0  0  0  0  0  0  0  0  0  0  0
    5.3504    5.8085    0.0000 C   0  0  0  0  0  0  0  0  0  0  0  0
    2.2844    3.2086    0.0000 C   0  0  0  0  0  0  0  0  0  0  0  0
    3.0664    1.5230    0.0000 O   0  0  0  0  0  0  0  0  0  0  0  0
    0.7615    3.2086    0.0000 O   0  0  0  0  0  0  0  0  0  0  0  0
    6.1119    7.1274    0.0000 C   0  0  0  0  0  0  0  0  0  0  0  0
    3.0664    0.0000    0.0000 R#  0  0  0  0  0  0  0  0  0  0  0  0
    0.0000    1.8896    0.0000 R#  0  0  0  0  0  0  0  0  0  0  0  0
  1  2  1  0  0  0  0
  2  3  1  0  0  0  0
  3  4  1  0  0  0  0
  4  5  1  0  0  0  0
  1  5  1  0  0  0  0
  3  6  1  1  0  0  0
  5  7  1  1  0  0  0
  7  8  1  0  0  0  0
  2  8  1  1  0  0  0
  5  9  1  6  0  0  0
  1 10  1  1  0  0  0
  9 11  1  0  0  0  0
  8 12  2  0  0  0  0
 10 13  1  0  0  0  0
 11 14  1  0  0  0  0
A    6
R3
A   13
R2
A   14
R1
M  END

>  <symbol>
ALmeclna

>  <m_abbr>
ALmeclna

>  <m_type>
rna

>  <m_subtype>
natural

>  <m_RgroupIdx>
13,12,5

>  <m_Rgroups>
H,H,OH

$$$$

MolEngine07221613482D

 15 16  0  0  0  0            999 V2000
    3.6218    2.8416    0.0000 C   0  0  0  0  0  0  0  0  0  0  0  0
    5.9564    1.5400    0.0000 O   0  0  0  0  0  0  0  0  0  0  0  0
    4.0689    4.4713    0.0000 C   0  0  0  0  0  0  0  0  0  0  0  0
    4.4393    2.9940    0.0000 C   0  0  0  0  0  0  0  0  0  0  0  0
    5.9777    2.9807    0.0000 C   0  0  0  0  0  0  0  0  0  0  0  0
    6.5295    4.4317    0.0000 C   0  0  0  0  0  0  0  0  0  0  0  0
    5.3626    5.4086    0.0000 O   0  0  0  0  0  0  0  0  0  0  0  0
    2.6377    4.9922    0.0000 C   0  0  0  0  0  0  0  0  0  0  0  0
    8.0047    4.8102    0.0000 R#  0  0  0  0  0  0  0  0  0  0  0  0
    1.4711    4.0132    0.0000 O   0  0  0  0  0  0  0  0  0  0  0  0
    0.0000    4.4074    0.0000 R#  0  0  0  0  0  0  0  0  0  0  0  0
    4.0451    1.5229    0.0000 O   0  0  0  0  0  0  0  0  0  0  0  0
    4.0451    0.0000    0.0000 R#  0  0  0  0  0  0  0  0  0  0  0  0
    2.2174    2.2524    0.0000 C   0  0  0  0  0  0  0  0  0  0  0  0
    2.0255    0.7415    0.0000 C   0  0  0  0  0  0  0  0  0  0  0  0
  1  2  1  0  0  0  0
  3  4  1  0  0  0  0
  4  5  1  0  0  0  0
  5  6  1  0  0  0  0
  6  7  1  0  0  0  0
  3  7  1  6  0  0  0
  3  8  1  1  0  0  0
  6  9  1  1  0  0  0
  8 10  1  0  0  0  0
  3  1  1  0  0  0  0
  5  2  1  6  0  0  0
 10 11  1  0  0  0  0
  4 12  1  6  0  0  0
 12 13  1  0  0  0  0
  1 14  1  1  0  0  0
 14 15  1  0  0  0  0
A    9
R3
A   11
R1
A   13
R2
M  END

>  <symbol>
ScPr

>  <m_abbr>
ScPr

>  <m_type>
rna

>  <m_subtype>
natural

>  <m_RgroupIdx>
10,12,8

>  <m_Rgroups>
H,H,OH

$$$$

MolEngine07221613482D

 12 12  0  0  0  0            999 V2000
    4.5690    5.4799    0.0000 C   0  0  0  0  0  0  0  0  0  0  0  0
    3.8075    4.1609    0.0000 C   0  0  0  0  0  0  0  0  0  0  0  0
    4.5690    2.8420    0.0000 C   0  0  0  0  0  0  0  0  0  0  0  0
    6.0919    2.8420    0.0000 C   0  0  0  0  0  0  0  0  0  0  0  0
    6.8535    4.1609    0.0000 C   0  0  0  0  0  0  0  0  0  0  0  0
    6.0919    5.4799    0.0000 C   0  0  0  0  0  0  0  0  0  0  0  0
    8.3765    4.1609    0.0000 R#  0  0  0  0  0  0  0  0  0  0  0  0
    3.8075    1.5230    0.0000 O   0  0  0  0  0  0  0  0  0  0  0  0
    2.2844    4.1609    0.0000 C   0  0  0  0  0  0  0  0  0  0  0  0
    1.5230    2.8420    0.0000 O   0  0  0  0  0  0  0  0  0  0  0  0
    3.8075    0.0000    0.0000 R#  0  0  0  0  0  0  0  0  0  0  0  0
    0.0000    2.8420    0.0000 R#  0  0  0  0  0  0  0  0  0  0  0  0
  1  2  1  0  0  0  0
  2  3  1  0  0  0  0
  3  4  1  0  0  0  0
  4  5  1  0  0  0  0
  5  6  1  0  0  0  0
  6  1  2  0  0  0  0
  5  7  1  1  0  0  0
  3  8  1  6  0  0  0
  2  9  1  1  0  0  0
  9 10  1  0  0  0  0
  8 11  1  0  0  0  0
 10 12  1  0  0  0  0
A    7
R3
A   11
R2
A   12
R1
M  END

>  <symbol>
cena

>  <m_abbr>
cena

>  <m_type>
rna

>  <m_subtype>
natural

>  <m_RgroupIdx>
11,10,6

>  <m_Rgroups>
H,H,OH

$$$$

MolEngine07221613482D

 42 42  0  0  0  0            999 V2000
    3.9181   21.1740    0.0000 C   0  0  0  0  0  0  0  0  0  0  0  0
    4.2956   19.6985    0.0000 C   0  0  0  0  0  0  0  0  0  0  0  0
    5.8340   19.6925    0.0000 C   0  0  0  0  0  0  0  0  0  0  0  0
    6.3770   21.1410    0.0000 C   0  0  0  0  0  0  0  0  0  0  0  0
    5.2073   22.1174    0.0000 O   0  0  0  0  0  0  0  0  0  0  0  0
    3.3548   18.5008    0.0000 O   0  0  0  0  0  0  0  0  0  0  0  0
    2.4845   21.6880    0.0000 C   0  0  0  0  0  0  0  0  0  0  0  0
    7.8523   21.5316    0.0000 R#  0  0  0  0  0  0  0  0  0  0  0  0
    1.3225   20.7035    0.0000 O   0  0  0  0  0  0  0  0  0  0  0  0
    0.0000   21.4587    0.0000 R#  0  0  0  0  0  0  0  0  0  0  0  0
    3.3621   16.9778    0.0000 R#  0  0  0  0  0  0  0  0  0  0  0  0
    6.6543   18.4099    0.0000 O   0  0  0  0  0  0  0  0  0  0  0  0
   10.4680   17.1092    0.0000 C   0  0  0  0  0  0  0  0  0  0  0  0
    8.9450   17.1019    0.0000 C   0  0  0  0  0  0  0  0  0  0  0  0
    8.1773   18.4172    0.0000 C   0  0  0  0  0  0  0  0  0  0  0  0
   11.2358   15.7938    0.0000 C   0  0  0  0  0  0  0  0  0  0  0  0
   12.7588   15.8011    0.0000 C   0  0  0  0  0  0  0  0  0  0  0  0
   13.5266   14.4858    0.0000 C   0  0  0  0  0  0  0  0  0  0  0  0
   15.0496   14.4931    0.0000 N   0  0  0  0  0  0  0  0  0  0  0  0
   17.3324   13.1896    0.0000 C   0  0  0  0  0  0  0  0  0  0  0  0
   15.8147   13.1823    0.0000 C   0  0  0  0  0  0  0  0  0  0  0  0
   15.0621   11.8644    0.0000 O   0  0  0  0  0  0  0  0  0  0  0  0
   18.0939   11.8706    0.0000 C   0  0  0  0  0  0  0  0  0  0  0  0
   19.6169   11.8706    0.0000 C   0  0  0  0  0  0  0  0  0  0  0  0
   20.3784   10.5517    0.0000 C   0  0  0  0  0  0  0  0  0  0  0  0
   21.9014   10.5517    0.0000 C   0  0  0  0  0  0  0  0  0  0  0  0
   22.6629    9.2327    0.0000 C   0  0  0  0  0  0  0  0  0  0  0  0
   24.1859    9.2327    0.0000 C   0  0  0  0  0  0  0  0  0  0  0  0
   24.9474    7.9137    0.0000 C   0  0  0  0  0  0  0  0  0  0  0  0
   26.4704    7.9137    0.0000 C   0  0  0  0  0  0  0  0  0  0  0  0
   27.2319    6.5948    0.0000 C   0  0  0  0  0  0  0  0  0  0  0  0
   28.7549    6.5948    0.0000 C   0  0  0  0  0  0  0  0  0  0  0  0
   29.5164    5.2758    0.0000 C   0  0  0  0  0  0  0  0  0  0  0  0
   31.0394    5.2758    0.0000 C   0  0  0  0  0  0  0  0  0  0  0  0
   31.8009    3.9569    0.0000 C   0  0  0  0  0  0  0  0  0  0  0  0
   33.3239    3.9569    0.0000 C   0  0  0  0  0  0  0  0  0  0  0  0
   34.0854    2.6379    0.0000 C   0  0  0  0  0  0  0  0  0  0  0  0
   35.6084    2.6379    0.0000 C   0  0  0  0  0  0  0  0  0  0  0  0
   36.3699    1.3190    0.0000 C   0  0  0  0  0  0  0  0  0  0  0  0
   37.8929    1.3190    0.0000 C   0  0  0  0  0  0  0  0  0  0  0  0
   38.6544    0.0000    0.0000 C   0  0  0  0  0  0  0  0  0  0  0  0
   40.1774    0.0000    0.0000 C   0  0  0  0  0  0  0  0  0  0  0  0
  1  2  1  0  0  0  0
  2  3  1  0  0  0  0
  3  4  1  0  0  0  0
  4  5  1  0  0  0  0
  5  1  1  0  0  0  0
  2  6  1  6  0  0  0
  3 12  1  6  0  0  0
  1  7  1  1  0  0  0
  4  8  1  1  0  0  0
  7  9  1  0  0  0  0
  9 10  1  0  0  0  0
  6 11  1  0  0  0  0
 14 15  1  0  0  0  0
 13 14  1  0  0  0  0
 12 15  1  0  0  0  0
 13 16  1  0  0  0  0
 16 17  1  0  0  0  0
 17 18  1  0  0  0  0
 18 19  1  0  0  0  0
 21 20  1  0  0  0  0
 21 22  2  0  0  0  0
 21 19  1  0  0  0  0
 20 23  1  0  0  0  0
 23 24  1  0  0  0  0
 24 25  1  0  0  0  0
 25 26  1  0  0  0  0
 26 27  1  0  0  0  0
 27 28  1  0  0  0  0
 28 29  1  0  0  0  0
 29 30  1  0  0  0  0
 30 31  1  0  0  0  0
 31 32  1  0  0  0  0
 32 33  1  0  0  0  0
 33 34  1  0  0  0  0
 34 35  1  0  0  0  0
 35 36  1  0  0  0  0
 36 37  1  0  0  0  0
 37 38  1  0  0  0  0
 38 39  1  0  0  0  0
 39 40  1  0  0  0  0
 40 41  1  0  0  0  0
 41 42  1  0  0  0  0
A    8
R3
A   10
R1
A   11
R2
M  END

>  <symbol>
C22oylnC62r

>  <m_abbr>
C22oylnC62r

>  <m_type>
rna

>  <m_subtype>
natural

>  <m_RgroupIdx>
9,10,7

>  <m_Rgroups>
H,H,OH

$$$$

MolEngine07221613482D

 21 21  0  0  0  0            999 V2000
    3.9182    7.9962    0.0000 C   0  0  0  0  0  0  0  0  0  0  0  0
    4.2957    6.5207    0.0000 C   0  0  0  0  0  0  0  0  0  0  0  0
    5.8341    6.5147    0.0000 C   0  0  0  0  0  0  0  0  0  0  0  0
    6.3771    7.9632    0.0000 C   0  0  0  0  0  0  0  0  0  0  0  0
    5.2074    8.9396    0.0000 O   0  0  0  0  0  0  0  0  0  0  0  0
    3.3549    5.3230    0.0000 O   0  0  0  0  0  0  0  0  0  0  0  0
    2.4846    8.5102    0.0000 C   0  0  0  0  0  0  0  0  0  0  0  0
    7.8523    8.3538    0.0000 R#  0  0  0  0  0  0  0  0  0  0  0  0
    1.3226    7.5257    0.0000 O   0  0  0  0  0  0  0  0  0  0  0  0
    0.0000    8.2809    0.0000 R#  0  0  0  0  0  0  0  0  0  0  0  0
    3.3622    3.8000    0.0000 R#  0  0  0  0  0  0  0  0  0  0  0  0
    6.6544    5.2321    0.0000 O   0  0  0  0  0  0  0  0  0  0  0  0
   10.4681    3.9314    0.0000 C   0  0  0  0  0  0  0  0  0  0  0  0
    8.9451    3.9241    0.0000 C   0  0  0  0  0  0  0  0  0  0  0  0
    8.1774    5.2394    0.0000 C   0  0  0  0  0  0  0  0  0  0  0  0
   11.2359    2.6160    0.0000 C   0  0  0  0  0  0  0  0  0  0  0  0
   12.7589    2.6233    0.0000 C   0  0  0  0  0  0  0  0  0  0  0  0
   13.5267    1.3080    0.0000 C   0  0  0  0  0  0  0  0  0  0  0  0
   15.0497    1.3153    0.0000 N   0  0  0  0  0  0  0  0  0  0  0  0
   15.8049    2.6379    0.0000 R#  0  0  0  0  0  0  0  0  0  0  0  0
   15.8175    0.0000    0.0000 R#  0  0  0  0  0  0  0  0  0  0  0  0
  1  2  1  0  0  0  0
  2  3  1  0  0  0  0
  3  4  1  0  0  0  0
  4  5  1  0  0  0  0
  5  1  1  0  0  0  0
  2  6  1  6  0  0  0
  3 12  1  6  0  0  0
  1  7  1  1  0  0  0
  4  8  1  1  0  0  0
  7  9  1  0  0  0  0
  9 10  1  0  0  0  0
  6 11  1  0  0  0  0
 14 15  1  0  0  0  0
 13 14  1  0  0  0  0
 12 15  1  0  0  0  0
 13 16  1  0  0  0  0
 16 17  1  0  0  0  0
 17 18  1  0  0  0  0
 18 19  1  0  0  0  0
 19 20  1  0  0  0  0
 19 21  1  0  0  0  0
A    8
R3
A   10
R1
A   11
R2
A   20
R5
A   21
R4
M  END

>  <symbol>
nC62r

>  <m_abbr>
nC62r

>  <m_type>
rna

>  <m_subtype>
natural

>  <m_RgroupIdx>
9,10,7,20,19

>  <m_Rgroups>
H,H,OH,H,H

$$$$

MolEngine07221613482D

 38 38  0  0  0  0            999 V2000
    3.9182   18.5360    0.0000 C   0  0  0  0  0  0  0  0  0  0  0  0
    4.2956   17.0605    0.0000 C   0  0  0  0  0  0  0  0  0  0  0  0
    5.8340   17.0545    0.0000 C   0  0  0  0  0  0  0  0  0  0  0  0
    6.3770   18.5031    0.0000 C   0  0  0  0  0  0  0  0  0  0  0  0
    5.2073   19.4794    0.0000 O   0  0  0  0  0  0  0  0  0  0  0  0
    3.3548   15.8629    0.0000 O   0  0  0  0  0  0  0  0  0  0  0  0
    2.4846   19.0501    0.0000 C   0  0  0  0  0  0  0  0  0  0  0  0
    7.8523   18.8937    0.0000 R#  0  0  0  0  0  0  0  0  0  0  0  0
    1.3225   18.0656    0.0000 O   0  0  0  0  0  0  0  0  0  0  0  0
    0.0000   18.8208    0.0000 R#  0  0  0  0  0  0  0  0  0  0  0  0
    3.3621   14.3399    0.0000 R#  0  0  0  0  0  0  0  0  0  0  0  0
    6.6543   15.7720    0.0000 O   0  0  0  0  0  0  0  0  0  0  0  0
   10.4681   14.4712    0.0000 C   0  0  0  0  0  0  0  0  0  0  0  0
    8.9451   14.4639    0.0000 C   0  0  0  0  0  0  0  0  0  0  0  0
    8.1773   15.7792    0.0000 C   0  0  0  0  0  0  0  0  0  0  0  0
   11.2359   13.1559    0.0000 C   0  0  0  0  0  0  0  0  0  0  0  0
   12.7588   13.1632    0.0000 C   0  0  0  0  0  0  0  0  0  0  0  0
   13.5266   11.8479    0.0000 C   0  0  0  0  0  0  0  0  0  0  0  0
   15.0496   11.8551    0.0000 N   0  0  0  0  0  0  0  0  0  0  0  0
   17.3324   10.5516    0.0000 O   0  0  0  0  0  0  0  0  0  0  0  0
   15.8147   10.5444    0.0000 C   0  0  0  0  0  0  0  0  0  0  0  0
   15.0622    9.2264    0.0000 O   0  0  0  0  0  0  0  0  0  0  0  0
   18.0939    9.2327    0.0000 C   0  0  0  0  0  0  0  0  0  0  0  0
   19.6169    9.2327    0.0000 C   0  0  0  0  0  0  0  0  0  0  0  0
   20.3784    7.9137    0.0000 C   0  0  0  0  0  0  0  0  0  0  0  0
   21.9014    7.9137    0.0000 C   0  0  0  0  0  0  0  0  0  0  0  0
   22.6629    6.5948    0.0000 C   0  0  0  0  0  0  0  0  0  0  0  0
   24.1859    6.5948    0.0000 C   0  0  0  0  0  0  0  0  0  0  0  0
   24.9474    5.2758    0.0000 C   0  0  0  0  0  0  0  0  0  0  0  0
   26.4704    5.2758    0.0000 C   0  0  0  0  0  0  0  0  0  0  0  0
   27.2319    3.9569    0.0000 C   0  0  0  0  0  0  0  0  0  0  0  0
   28.7549    3.9569    0.0000 C   0  0  0  0  0  0  0  0  0  0  0  0
   29.5164    2.6379    0.0000 C   0  0  0  0  0  0  0  0  0  0  0  0
   31.0394    2.6379    0.0000 C   0  0  0  0  0  0  0  0  0  0  0  0
   31.8009    1.3190    0.0000 C   0  0  0  0  0  0  0  0  0  0  0  0
   33.3239    1.3190    0.0000 C   0  0  0  0  0  0  0  0  0  0  0  0
   34.0854    0.0000    0.0000 C   0  0  0  0  0  0  0  0  0  0  0  0
   35.6084    0.0000    0.0000 C   0  0  0  0  0  0  0  0  0  0  0  0
  1  2  1  0  0  0  0
  2  3  1  0  0  0  0
  3  4  1  0  0  0  0
  4  5  1  0  0  0  0
  5  1  1  0  0  0  0
  2  6  1  6  0  0  0
  3 12  1  6  0  0  0
  1  7  1  1  0  0  0
  4  8  1  1  0  0  0
  7  9  1  0  0  0  0
  9 10  1  0  0  0  0
  6 11  1  0  0  0  0
 14 15  1  0  0  0  0
 13 14  1  0  0  0  0
 12 15  1  0  0  0  0
 13 16  1  0  0  0  0
 16 17  1  0  0  0  0
 17 18  1  0  0  0  0
 18 19  1  0  0  0  0
 21 20  1  0  0  0  0
 21 22  2  0  0  0  0
 21 19  1  0  0  0  0
 20 23  1  0  0  0  0
 23 24  1  0  0  0  0
 24 25  1  0  0  0  0
 25 26  1  0  0  0  0
 26 27  1  0  0  0  0
 27 28  1  0  0  0  0
 28 29  1  0  0  0  0
 29 30  1  0  0  0  0
 30 31  1  0  0  0  0
 31 32  1  0  0  0  0
 32 33  1  0  0  0  0
 33 34  1  0  0  0  0
 34 35  1  0  0  0  0
 35 36  1  0  0  0  0
 36 37  1  0  0  0  0
 37 38  1  0  0  0  0
A    8
R3
A   10
R1
A   11
R2
M  END

>  <symbol>
C16ocnC62r

>  <m_abbr>
C16ocnC62r

>  <m_type>
rna

>  <m_subtype>
natural

>  <m_RgroupIdx>
9,10,7

>  <m_Rgroups>
H,H,OH

$$$$

MolEngine07221613482D

 13 14  0  0  0  0            999 V2000
    4.4547    5.1139    0.0000 O   0  0  0  0  0  0  0  0  0  0  0  0
    3.2280    4.2113    0.0000 C   0  0  0  0  0  0  0  0  0  0  0  0
    5.6922    4.2260    0.0000 C   0  0  0  0  0  0  0  0  0  0  0  0
    3.7071    2.7657    0.0000 C   0  0  0  0  0  0  0  0  0  0  0  0
    5.2301    2.7748    0.0000 C   0  0  0  0  0  0  0  0  0  0  0  0
    2.8193    1.5283    0.0000 O   0  0  0  0  0  0  0  0  0  0  0  0
    1.7767    4.6734    0.0000 C   0  0  0  0  0  0  0  0  0  0  0  0
    1.4513    6.1612    0.0000 O   0  0  0  0  0  0  0  0  0  0  0  0
    0.0000    6.6232    0.0000 R#  0  0  0  0  0  0  0  0  0  0  0  0
    7.1378    4.7052    0.0000 R#  0  0  0  0  0  0  0  0  0  0  0  0
    2.8193    0.0000    0.0000 R#  0  0  0  0  0  0  0  0  0  0  0  0
    5.0709    3.9263    0.0000 O   0  0  0  0  0  0  0  0  0  0  0  0
    3.8663    3.9263    0.0000 C   0  0  0  0  0  0  0  0  0  0  0  0
  1  2  1  0  0  0  0
  1  3  1  0  0  0  0
  2  4  1  0  0  0  0
  2  7  1  1  0  0  0
  3  5  1  0  0  0  0
  4  5  1  0  0  0  0
  4  6  1  6  0  0  0
  7  8  1  0  0  0  0
  8  9  1  0  0  0  0
  3 10  1  1  0  0  0
  6 11  1  0  0  0  0
  5 12  1  1  0  0  0
 12 13  1  0  0  0  0
 13  4  1  0  0  0  0
A    9
R1
A   10
R3
A   11
R2
M  END

>  <symbol>
ox23ar

>  <m_abbr>
ox23ar

>  <m_type>
rna

>  <m_subtype>
natural

>  <m_RgroupIdx>
8,10,9

>  <m_Rgroups>
H,H,OH

$$$$

MolEngine07221613482D

 13 13  0  0  0  0            999 V2000
    4.0295    4.2062    0.0000 C   0  0  0  0  0  0  0  0  0  0  0  0
    4.4724    2.7490    0.0000 C   0  0  0  0  0  0  0  0  0  0  0  0
    5.9952    2.7200    0.0000 C   0  0  0  0  0  0  0  0  0  0  0  0
    6.4933    4.1593    0.0000 C   0  0  0  0  0  0  0  0  0  0  0  0
    5.2784    5.0777    0.0000 O   0  0  0  0  0  0  0  0  0  0  0  0
    2.5902    4.7043    0.0000 C   0  0  0  0  0  0  0  0  0  0  0  0
    3.5540    1.5341    0.0000 O   0  0  0  0  0  0  0  0  0  0  0  0
    1.4392    3.7069    0.0000 O   0  0  0  0  0  0  0  0  0  0  0  0
    0.0000    4.2050    0.0000 R#  0  0  0  0  0  0  0  0  0  0  0  0
    3.6047    0.0120    0.0000 R#  0  0  0  0  0  0  0  0  0  0  0  0
    7.9504    4.6023    0.0000 R#  0  0  0  0  0  0  0  0  0  0  0  0
    6.8668    1.4711    0.0000 Se  0  0  0  0  0  0  0  0  0  0  0  0
    7.2609    0.0000    0.0000 C   0  0  0  0  0  0  0  0  0  0  0  0
  1  2  1  0  0  0  0
  2  3  1  0  0  0  0
  3  4  1  0  0  0  0
  4  5  1  0  0  0  0
  5  1  1  0  0  0  0
  1  6  1  1  0  0  0
  2  7  1  6  0  0  0
  6  8  1  0  0  0  0
  8  9  1  0  0  0  0
  7 10  1  0  0  0  0
  4 11  1  1  0  0  0
  3 12  1  6  0  0  0
 12 13  1  0  0  0  0
A    9
R1
A   10
R2
A   11
R3
M  END

>  <symbol>
se2r

>  <m_abbr>
se2r

>  <m_type>
rna

>  <m_subtype>
natural

>  <m_RgroupIdx>
8,9,10

>  <m_Rgroups>
H,H,OH

$$$$

MolEngine07221613482D

 29 33  0  0  0  0            999 V2000
    3.9168    8.0528    0.0000 C   0  0  0  0  0  0  0  0  0  0  0  0
    4.2872    6.5756    0.0000 C   0  0  0  0  0  0  0  0  0  0  0  0
    5.8256    6.5622    0.0000 C   0  0  0  0  0  0  0  0  0  0  0  0
    6.3774    8.0132    0.0000 C   0  0  0  0  0  0  0  0  0  0  0  0
    5.2105    8.9901    0.0000 O   0  0  0  0  0  0  0  0  0  0  0  0
    3.3407    5.3824    0.0000 O   0  0  0  0  0  0  0  0  0  0  0  0
    2.4857    8.5737    0.0000 C   0  0  0  0  0  0  0  0  0  0  0  0
    7.8526    8.3918    0.0000 R#  0  0  0  0  0  0  0  0  0  0  0  0
    1.3190    7.5948    0.0000 O   0  0  0  0  0  0  0  0  0  0  0  0
    0.0000    8.3563    0.0000 R#  0  0  0  0  0  0  0  0  0  0  0  0
    3.3407    3.8594    0.0000 R#  0  0  0  0  0  0  0  0  0  0  0  0
    6.6397    5.2758    0.0000 O   0  0  0  0  0  0  0  0  0  0  0  0
    8.9242    3.9568    0.0000 C   0  0  0  0  0  0  0  0  0  0  0  0
    8.1627    5.2758    0.0000 C   0  0  0  0  0  0  0  0  0  0  0  0
    8.1627    2.6379    0.0000 C   0  0  0  0  0  0  0  0  0  0  0  0
    8.9242    1.3189    0.0000 C   0  0  0  0  0  0  0  0  0  0  0  0
   10.4472    1.3189    0.0000 C   0  0  0  0  0  0  0  0  0  0  0  0
   11.2087    2.6379    0.0000 C   0  0  0  0  0  0  0  0  0  0  0  0
   10.4472    3.9568    0.0000 C   0  0  0  0  0  0  0  0  0  0  0  0
   12.7317    2.6379    0.0000 C   0  0  0  0  0  0  0  0  0  0  0  0
   13.4932    3.9568    0.0000 C   0  0  0  0  0  0  0  0  0  0  0  0
   12.7317    5.2758    0.0000 C   0  0  0  0  0  0  0  0  0  0  0  0
   11.2087    5.2758    0.0000 C   0  0  0  0  0  0  0  0  0  0  0  0
   11.2087    0.0000    0.0000 C   0  0  0  0  0  0  0  0  0  0  0  0
   12.7317    0.0000    0.0000 C   0  0  0  0  0  0  0  0  0  0  0  0
   13.4932    1.3189    0.0000 C   0  0  0  0  0  0  0  0  0  0  0  0
   15.0162    1.3189    0.0000 C   0  0  0  0  0  0  0  0  0  0  0  0
   15.7777    2.6379    0.0000 C   0  0  0  0  0  0  0  0  0  0  0  0
   15.0162    3.9568    0.0000 C   0  0  0  0  0  0  0  0  0  0  0  0
  1  2  1  0  0  0  0
  2  3  1  0  0  0  0
  3  4  1  0  0  0  0
  4  5  1  0  0  0  0
  5  1  1  0  0  0  0
  2  6  1  6  0  0  0
  3 12  1  6  0  0  0
  1  7  1  1  0  0  0
  4  8  1  1  0  0  0
  7  9  1  0  0  0  0
  9 10  1  0  0  0  0
  6 11  1  0  0  0  0
 13 14  1  0  0  0  0
 12 14  1  0  0  0  0
 13 15  2  0  0  0  0
 15 16  1  0  0  0  0
 16 17  2  0  0  0  0
 17 18  1  0  0  0  0
 18 19  2  0  0  0  0
 19 13  1  0  0  0  0
 18 20  1  0  0  0  0
 20 21  2  0  0  0  0
 21 22  1  0  0  0  0
 22 23  2  0  0  0  0
 23 19  1  0  0  0  0
 17 24  1  0  0  0  0
 24 25  1  0  0  0  0
 25 26  2  0  0  0  0
 26 20  1  0  0  0  0
 26 27  1  0  0  0  0
 27 28  1  0  0  0  0
 28 29  2  0  0  0  0
 29 21  1  0  0  0  0
A    8
R3
A   10
R1
A   11
R2
M  END

>  <symbol>
pyren1ylm2r

>  <m_abbr>
pyren1ylm2r

>  <m_type>
rna

>  <m_subtype>
natural

>  <m_RgroupIdx>
9,10,7

>  <m_Rgroups>
H,H,OH

$$$$

MolEngine07221613482D

 14 15  0  0  0  0            999 V2000
    3.6734    2.9953    0.0000 C   0  0  0  0  0  0  0  0  0  0  0  0
    5.1770    2.5068    0.0000 C   0  0  0  0  0  0  0  0  0  0  0  0
    6.0090    3.7542    0.0000 C   0  0  0  0  0  0  0  0  0  0  0  0
    5.1167    4.9820    0.0000 O   0  0  0  0  0  0  0  0  0  0  0  0
    3.6734    4.5130    0.0000 C   0  0  0  0  0  0  0  0  0  0  0  0
    7.5267    3.7542    0.0000 R#  0  0  0  0  0  0  0  0  0  0  0  0
    3.6734    1.4776    0.0000 O   0  0  0  0  0  0  0  0  0  0  0  0
    2.2300    4.9819    0.0000 C   0  0  0  0  0  0  0  0  0  0  0  0
    1.3378    3.7541    0.0000 C   0  0  0  0  0  0  0  0  0  0  0  0
    2.2300    2.5261    0.0000 C   0  0  0  0  0  0  0  0  0  0  0  0
    3.6734    6.0307    0.0000 H   0  0  0  0  0  0  0  0  0  0  0  0
    1.7610    6.4253    0.0000 O   0  0  0  0  0  0  0  0  0  0  0  0
    0.0000    6.4253    0.0000 R#  0  0  0  0  0  0  0  0  0  0  0  0
    2.7533    0.0000    0.0000 R#  0  0  0  0  0  0  0  0  0  0  0  0
  1  2  1  0  0  0  0
  2  3  1  0  0  0  0
  3  4  1  0  0  0  0
  4  5  1  0  0  0  0
  5  1  1  0  0  0  0
  3  6  1  1  0  0  0
  1  7  1  6  0  0  0
  5  8  1  0  0  0  0
  8  9  1  0  0  0  0
  9 10  1  0  0  0  0
 10  1  1  0  0  0  0
  5 11  1  6  0  0  0
  8 12  1  6  0  0  0
 12 13  1  0  0  0  0
  7 14  1  0  0  0  0
A    6
R3
A   13
R1
A   14
R2
M  END

>  <symbol>
bcdna

>  <m_abbr>
bcdna

>  <m_type>
rna

>  <m_subtype>
natural

>  <m_RgroupIdx>
12,13,5

>  <m_Rgroups>
H,H,OH

$$$$

MolEngine07221613482D

 16 18  0  0  0  0            999 V2000
    3.4128    2.9666    0.0000 C   0  0  0  0  0  0  0  0  0  0  0  0
    4.9358    2.9666    0.0000 C   0  0  0  0  0  0  0  0  0  0  0  0
    5.4064    4.4150    0.0000 C   0  0  0  0  0  0  0  0  0  0  0  0
    4.1743    5.3102    0.0000 O   0  0  0  0  0  0  0  0  0  0  0  0
    2.9421    4.4150    0.0000 C   0  0  0  0  0  0  0  0  0  0  0  0
    2.5479    2.9439    0.0000 C   0  0  0  0  0  0  0  0  0  0  0  0
    4.9675    1.5418    0.0000 O   0  0  0  0  0  0  0  0  0  0  0  0
    1.8653    5.4920    0.0000 C   0  0  0  0  0  0  0  0  0  0  0  0
    0.3942    5.0978    0.0000 C   0  0  0  0  0  0  0  0  0  0  0  0
    0.0000    3.6267    0.0000 C   0  0  0  0  0  0  0  0  0  0  0  0
    1.0768    2.5497    0.0000 C   0  0  0  0  0  0  0  0  0  0  0  0
    6.8548    4.8857    0.0000 R#  0  0  0  0  0  0  0  0  0  0  0  0
    2.2594    6.9631    0.0000 O   0  0  0  0  0  0  0  0  0  0  0  0
    3.2580    1.5230    0.0000 O   0  0  0  0  0  0  0  0  0  0  0  0
    3.2580    0.0000    0.0000 R#  0  0  0  0  0  0  0  0  0  0  0  0
    1.1825    8.0400    0.0000 R#  0  0  0  0  0  0  0  0  0  0  0  0
  1  2  1  0  0  0  0
  2  3  1  0  0  0  0
  3  4  1  0  0  0  0
  5  4  1  6  0  0  0
  5  1  1  0  0  0  0
  5  6  1  0  0  0  0
  2  7  1  6  0  0  0
  7  6  1  0  0  0  0
  5  8  1  0  0  0  0
  8  9  1  0  0  0  0
  9 10  1  0  0  0  0
 10 11  1  0  0  0  0
  6 11  1  6  0  0  0
  3 12  1  1  0  0  0
  8 13  1  6  0  0  0
  1 14  1  6  0  0  0
 14 15  1  0  0  0  0
 13 16  1  0  0  0  0
A   12
R3
A   15
R2
A   16
R1
M  END

>  <symbol>
trina2

>  <m_abbr>
trina2

>  <m_type>
rna

>  <m_subtype>
natural

>  <m_RgroupIdx>
15,14,11

>  <m_Rgroups>
H,H,OH

$$$$

MolEngine07221613482D

 13 14  0  0  0  0            999 V2000
    4.0689    4.2992    0.0000 C   0  0  0  0  0  0  0  0  0  0  0  0
    4.4393    2.8219    0.0000 C   0  0  0  0  0  0  0  0  0  0  0  0
    5.9777    2.8086    0.0000 C   0  0  0  0  0  0  0  0  0  0  0  0
    6.5295    4.2596    0.0000 C   0  0  0  0  0  0  0  0  0  0  0  0
    5.3626    5.2365    0.0000 C   0  0  0  0  0  0  0  0  0  0  0  0
    3.9159    1.5230    0.0000 O   0  0  0  0  0  0  0  0  0  0  0  0
    2.6378    4.8201    0.0000 C   0  0  0  0  0  0  0  0  0  0  0  0
    8.0047    4.6381    0.0000 R#  0  0  0  0  0  0  0  0  0  0  0  0
    1.4711    3.8411    0.0000 O   0  0  0  0  0  0  0  0  0  0  0  0
    0.0000    4.2353    0.0000 R#  0  0  0  0  0  0  0  0  0  0  0  0
    3.9159    0.0000    0.0000 R#  0  0  0  0  0  0  0  0  0  0  0  0
    5.5274    3.6475    0.0000 C   0  0  0  0  0  0  0  0  0  0  0  0
    6.8368    1.5510    0.0000 F   0  0  0  0  0  0  0  0  0  0  0  0
  1  2  1  0  0  0  0
  2  3  1  0  0  0  0
  3  4  1  0  0  0  0
  4  5  1  0  0  0  0
  5  1  1  0  0  0  0
  2  6  1  6  0  0  0
  1  7  1  0  0  0  0
  4  8  1  0  0  0  0
  7  9  1  0  0  0  0
  9 10  1  0  0  0  0
  6 11  1  0  0  0  0
  1 12  1  6  0  0  0
  5 12  1  6  0  0  0
  3 13  1  1  0  0  0
A    8
R3
A   10
R1
A   11
R2
M  END

>  <symbol>
afl2Nmc

>  <m_abbr>
afl2Nmc

>  <m_type>
rna

>  <m_subtype>
natural

>  <m_RgroupIdx>
9,10,7

>  <m_Rgroups>
H,H,OH

$$$$

MolEngine07221613482D

124127  0  0  0  0            999 V2000
   38.3352   23.7974    0.0000 C   0  0  0  0  0  0  0  0  0  0  0  0
   37.3223   22.6601    0.0000 C   0  0  0  0  0  0  0  0  0  0  0  0
   35.8309   22.9685    0.0000 C   0  0  0  0  0  0  0  0  0  0  0  0
   34.8180   21.8311    0.0000 C   0  0  0  0  0  0  0  0  0  0  0  0
   33.3266   22.1396    0.0000 C   0  0  0  0  0  0  0  0  0  0  0  0
   32.3137   21.0022    0.0000 C   0  0  0  0  0  0  0  0  0  0  0  0
   30.8223   21.3106    0.0000 N   0  0  0  0  0  0  0  0  0  0  0  0
   29.8095   20.1732    0.0000 C   0  0  0  0  0  0  0  0  0  0  0  0
   30.2881   18.7274    0.0000 O   0  0  0  0  0  0  0  0  0  0  0  0
   24.2842   19.0746    0.0000 O   0  0  0  0  0  0  0  0  0  0  0  0
   22.8556   19.2587    0.0000 C   0  0  0  0  0  0  0  0  0  0  0  0
   22.4286   20.6672    0.0000 C   0  0  0  0  0  0  0  0  0  0  0  0
   23.7804   21.1245    0.0000 N   0  0  0  0  0  0  0  0  0  0  0  0
   22.0905   21.8161    0.0000 C   0  0  0  0  0  0  0  0  0  0  0  0
   20.6325   21.9221    0.0000 O   0  0  0  0  0  0  0  0  0  0  0  0
   21.2795   19.6456    0.0000 C   0  0  0  0  0  0  0  0  0  0  0  0
   19.7155   20.0840    0.0000 O   0  0  0  0  0  0  0  0  0  0  0  0
   24.6215   17.6838    0.0000 C   0  0  0  0  0  0  0  0  0  0  0  0
   25.8223   17.2819    0.0000 C   0  0  0  0  0  0  0  0  0  0  0  0
   18.4970   19.1557    0.0000 C   0  0  0  0  0  0  0  0  0  0  0  0
   17.3337   19.5660    0.0000 C   0  0  0  0  0  0  0  0  0  0  0  0
   20.2299   23.2898    0.0000 C   0  0  0  0  0  0  0  0  0  0  0  0
   19.2580   23.3605    0.0000 C   0  0  0  0  0  0  0  0  0  0  0  0
   18.8200   24.2421    0.0000 C   0  0  0  0  0  0  0  0  0  0  0  0
   19.5139   25.2813    0.0000 O   0  0  0  0  0  0  0  0  0  0  0  0
   16.1129   10.0277    0.0000 C   0  0  0  0  0  0  0  0  0  0  0  0
   15.4642    9.1880    0.0000 C   0  0  0  0  0  0  0  0  0  0  0  0
   15.8670    8.2064    0.0000 C   0  0  0  0  0  0  0  0  0  0  0  0
   15.2184    7.3666    0.0000 C   0  0  0  0  0  0  0  0  0  0  0  0
   16.6179   18.7258    0.0000 C   0  0  0  0  0  0  0  0  0  0  0  0
   17.1722   17.3794    0.0000 N   0  0  0  0  0  0  0  0  0  0  0  0
   15.4350   18.8855    0.0000 O   0  0  0  0  0  0  0  0  0  0  0  0
   16.1993   16.1200    0.0000 C   0  0  0  0  0  0  0  0  0  0  0  0
   16.8744   15.1733    0.0000 C   0  0  0  0  0  0  0  0  0  0  0  0
   15.9848   14.0363    0.0000 C   0  0  0  0  0  0  0  0  0  0  0  0
   16.6348   12.9016    0.0000 N   0  0  0  0  0  0  0  0  0  0  0  0
   15.7291   11.1502    0.0000 C   0  0  0  0  0  0  0  0  0  0  0  0
   14.4804   11.3188    0.0000 O   0  0  0  0  0  0  0  0  0  0  0  0
   26.0931   15.9829    0.0000 C   0  0  0  0  0  0  0  0  0  0  0  0
   24.9573   14.9683    0.0000 O   0  0  0  0  0  0  0  0  0  0  0  0
   32.8119    9.6048    0.0000 C   0  0  0  0  0  0  0  0  0  0  0  0
   33.1227    8.1139    0.0000 C   0  0  0  0  0  0  0  0  0  0  0  0
   34.5693    7.6376    0.0000 C   0  0  0  0  0  0  0  0  0  0  0  0
   34.8801    6.1466    0.0000 C   0  0  0  0  0  0  0  0  0  0  0  0
   27.5397   15.5066    0.0000 N   0  0  0  0  0  0  0  0  0  0  0  0
   31.0545   11.5721    0.0000 N   0  0  0  0  0  0  0  0  0  0  0  0
   31.3653   10.0811    0.0000 C   0  0  0  0  0  0  0  0  0  0  0  0
   30.2295    9.0665    0.0000 O   0  0  0  0  0  0  0  0  0  0  0  0
   10.5739   20.0922    0.0000 C   0  0  0  0  0  0  0  0  0  0  0  0
    9.8550   18.7495    0.0000 C   0  0  0  0  0  0  0  0  0  0  0  0
    8.3328   18.7008    0.0000 C   0  0  0  0  0  0  0  0  0  0  0  0
    7.6139   17.3581    0.0000 C   0  0  0  0  0  0  0  0  0  0  0  0
   17.2972   24.2664    0.0000 N   0  0  0  0  0  0  0  0  0  0  0  0
   16.5783   22.9237    0.0000 C   0  0  0  0  0  0  0  0  0  0  0  0
   15.0561   22.8750    0.0000 C   0  0  0  0  0  0  0  0  0  0  0  0
   14.3372   21.5323    0.0000 C   0  0  0  0  0  0  0  0  0  0  0  0
   12.8150   21.4836    0.0000 N   0  0  0  0  0  0  0  0  0  0  0  0
   12.0961   20.1409    0.0000 C   0  0  0  0  0  0  0  0  0  0  0  0
   12.8994   18.8470    0.0000 O   0  0  0  0  0  0  0  0  0  0  0  0
   29.6079   12.0484    0.0000 C   0  0  0  0  0  0  0  0  0  0  0  0
   29.2971   13.5394    0.0000 C   0  0  0  0  0  0  0  0  0  0  0  0
   27.8505   14.0157    0.0000 C   0  0  0  0  0  0  0  0  0  0  0  0
   25.3352   21.0986    0.0000 C   0  0  0  0  0  0  0  0  0  0  0  0
   26.3480   22.2360    0.0000 O   0  0  0  0  0  0  0  0  0  0  0  0
   25.8137   19.6527    0.0000 C   0  0  0  0  0  0  0  0  0  0  0  0
   27.3052   19.3443    0.0000 C   0  0  0  0  0  0  0  0  0  0  0  0
   28.3180   20.4817    0.0000 C   0  0  0  0  0  0  0  0  0  0  0  0
   41.8294   26.8831    0.0000 C   0  0  0  0  0  0  0  0  0  0  0  0
   40.5146   26.1143    0.0000 C   0  0  0  0  0  0  0  0  0  0  0  0
   40.8394   24.6264    0.0000 C   0  0  0  0  0  0  0  0  0  0  0  0
   42.3550   24.4755    0.0000 C   0  0  0  0  0  0  0  0  0  0  0  0
   42.9668   25.8702    0.0000 O   0  0  0  0  0  0  0  0  0  0  0  0
   41.9802   28.3986    0.0000 C   0  0  0  0  0  0  0  0  0  0  0  0
   39.1199   26.7261    0.0000 O   0  0  0  0  0  0  0  0  0  0  0  0
   40.7432   29.2870    0.0000 O   0  0  0  0  0  0  0  0  0  0  0  0
   40.8941   30.8025    0.0000 R#  0  0  0  0  0  0  0  0  0  0  0  0
   37.5374   26.7380    0.0000 R#  0  0  0  0  0  0  0  0  0  0  0  0
   39.8266   23.4890    0.0000 O   0  0  0  0  0  0  0  0  0  0  0  0
   43.1237   23.1608    0.0000 R#  0  0  0  0  0  0  0  0  0  0  0  0
    2.5249   15.4346    0.0000 C   0  0  0  0  0  0  0  0  0  0  0  0
    2.9659   13.9768    0.0000 C   0  0  0  0  0  0  0  0  0  0  0  0
    4.4489   13.6300    0.0000 C   0  0  0  0  0  0  0  0  0  0  0  0
    5.4908   14.7408    0.0000 C   0  0  0  0  0  0  0  0  0  0  0  0
    5.0497   16.1985    0.0000 C   0  0  0  0  0  0  0  0  0  0  0  0
    3.5668   16.5454    0.0000 O   0  0  0  0  0  0  0  0  0  0  0  0
    6.0917   17.3094    0.0000 O   0  0  0  0  0  0  0  0  0  0  0  0
    4.8900   12.1722    0.0000 O   0  0  0  0  0  0  0  0  0  0  0  0
    1.9240   12.8660    0.0000 O   0  0  0  0  0  0  0  0  0  0  0  0
    1.0419   15.7815    0.0000 C   0  0  0  0  0  0  0  0  0  0  0  0
    0.0000   14.6706    0.0000 O   0  0  0  0  0  0  0  0  0  0  0  0
   12.1759    4.2083    0.0000 C   0  0  0  0  0  0  0  0  0  0  0  0
   12.6170    2.7506    0.0000 C   0  0  0  0  0  0  0  0  0  0  0  0
   14.1000    2.4037    0.0000 C   0  0  0  0  0  0  0  0  0  0  0  0
   15.1419    3.5145    0.0000 C   0  0  0  0  0  0  0  0  0  0  0  0
   14.7008    4.9723    0.0000 C   0  0  0  0  0  0  0  0  0  0  0  0
   13.2179    5.3191    0.0000 O   0  0  0  0  0  0  0  0  0  0  0  0
   15.7427    6.0831    0.0000 O   0  0  0  0  0  0  0  0  0  0  0  0
   14.5410    0.9459    0.0000 O   0  0  0  0  0  0  0  0  0  0  0  0
   11.5751    1.6397    0.0000 O   0  0  0  0  0  0  0  0  0  0  0  0
   10.6930    4.5552    0.0000 C   0  0  0  0  0  0  0  0  0  0  0  0
    9.6511    3.4444    0.0000 O   0  0  0  0  0  0  0  0  0  0  0  0
   33.7071    2.6085    0.0000 C   0  0  0  0  0  0  0  0  0  0  0  0
   34.6564    1.4176    0.0000 C   0  0  0  0  0  0  0  0  0  0  0  0
   36.1624    1.6442    0.0000 C   0  0  0  0  0  0  0  0  0  0  0  0
   36.7192    3.0618    0.0000 C   0  0  0  0  0  0  0  0  0  0  0  0
   35.7699    4.2528    0.0000 C   0  0  0  0  0  0  0  0  0  0  0  0
   34.2639    4.0261    0.0000 O   0  0  0  0  0  0  0  0  0  0  0  0
   36.3267    5.6703    0.0000 O   0  0  0  0  0  0  0  0  0  0  0  0
   37.1117    0.4532    0.0000 O   0  0  0  0  0  0  0  0  0  0  0  0
   34.0996    0.0000    0.0000 O   0  0  0  0  0  0  0  0  0  0  0  0
   32.2011    2.3819    0.0000 C   0  0  0  0  0  0  0  0  0  0  0  0
   31.6443    0.9644    0.0000 O   0  0  0  0  0  0  0  0  0  0  0  0
    6.9738   14.3939    0.0000 N   0  0  0  0  0  0  0  0  0  0  0  0
    6.3729   11.8253    0.0000 O   0  0  0  0  0  0  0  0  0  0  0  0
    7.4149   12.9362    0.0000 C   0  0  0  0  0  0  0  0  0  0  0  0
    8.8978   12.5893    0.0000 C   0  0  0  0  0  0  0  0  0  0  0  0
   16.6249    3.1676    0.0000 N   0  0  0  0  0  0  0  0  0  0  0  0
   16.0240    0.5991    0.0000 O   0  0  0  0  0  0  0  0  0  0  0  0
   17.0659    1.7099    0.0000 C   0  0  0  0  0  0  0  0  0  0  0  0
   18.5489    1.3630    0.0000 C   0  0  0  0  0  0  0  0  0  0  0  0
   38.2252    3.2884    0.0000 N   0  0  0  0  0  0  0  0  0  0  0  0
   38.6177    0.6798    0.0000 O   0  0  0  0  0  0  0  0  0  0  0  0
   39.1745    2.0974    0.0000 C   0  0  0  0  0  0  0  0  0  0  0  0
   40.6806    2.3240    0.0000 C   0  0  0  0  0  0  0  0  0  0  0  0
115116  1  0  0  0  0
114115  2  0  0  0  0
113115  1  0  0  0  0
119120  1  0  0  0  0
118119  2  0  0  0  0
117119  1  0  0  0  0
123124  1  0  0  0  0
122123  2  0  0  0  0
121123  1  0  0  0  0
  1 78  1  0  0  0  0
  2  1  1  0  0  0  0
  3  2  1  0  0  0  0
  4  3  1  0  0  0  0
  5  4  1  0  0  0  0
  6  5  1  0  0  0  0
  6  7  1  0  0  0  0
  8  9  2  0  0  0  0
  7  8  1  0  0  0  0
 10 11  1  0  0  0  0
 11 12  1  0  0  0  0
 12 13  1  0  0  0  0
 12 14  1  0  0  0  0
 14 15  1  0  0  0  0
 12 16  1  0  0  0  0
 16 17  1  0  0  0  0
 10 18  1  0  0  0  0
 18 19  1  0  0  0  0
 17 20  1  0  0  0  0
 20 21  1  0  0  0  0
 15 22  1  0  0  0  0
 22 23  1  0  0  0  0
 23 24  1  0  0  0  0
 24 25  2  0  0  0  0
 27 26  1  0  0  0  0
 28 27  1  0  0  0  0
 29 28  1  0  0  0  0
 97 29  1  0  0  0  0
 21 30  1  0  0  0  0
 30 31  1  0  0  0  0
 30 32  2  0  0  0  0
 33 31  1  0  0  0  0
 34 33  1  0  0  0  0
 35 34  1  0  0  0  0
 35 36  1  0  0  0  0
 37 26  1  0  0  0  0
 37 38  2  0  0  0  0
 19 39  1  0  0  0  0
 39 40  2  0  0  0  0
 42 41  1  0  0  0  0
 43 42  1  0  0  0  0
 44 43  1  0  0  0  0
108 44  1  0  0  0  0
 47 41  1  0  0  0  0
 47 48  2  0  0  0  0
 45 39  1  0  0  0  0
 50 49  1  0  0  0  0
 51 50  1  0  0  0  0
 52 51  1  0  0  0  0
 86 52  1  0  0  0  0
 54 53  1  0  0  0  0
 55 54  1  0  0  0  0
 56 55  1  0  0  0  0
 56 57  1  0  0  0  0
 57 58  1  0  0  0  0
 58 49  1  0  0  0  0
 58 59  2  0  0  0  0
 53 24  1  0  0  0  0
 36 37  1  0  0  0  0
 46 47  1  0  0  0  0
 46 60  1  0  0  0  0
 60 61  1  0  0  0  0
 61 62  1  0  0  0  0
 62 45  1  0  0  0  0
 63 64  2  0  0  0  0
 63 65  1  0  0  0  0
 65 66  1  0  0  0  0
 66 67  1  0  0  0  0
  8 67  1  0  0  0  0
 68 69  1  0  0  0  0
 69 70  1  0  0  0  0
 70 71  1  0  0  0  0
 71 72  1  0  0  0  0
 72 68  1  0  0  0  0
 68 73  1  1  0  0  0
 69 74  1  6  0  0  0
 73 75  1  0  0  0  0
 75 76  1  0  0  0  0
 74 77  1  0  0  0  0
 70 78  1  6  0  0  0
 71 79  1  1  0  0  0
 80 81  1  0  0  0  0
 81 82  1  0  0  0  0
 82 83  1  0  0  0  0
 83 84  1  0  0  0  0
 84 85  1  0  0  0  0
 85 80  1  0  0  0  0
 84 86  1  1  0  0  0
 82 87  1  1  0  0  0
 81 88  1  1  0  0  0
 80 89  1  1  0  0  0
 89 90  1  0  0  0  0
 83113  1  6  0  0  0
 91 92  1  0  0  0  0
 92 93  1  0  0  0  0
 93 94  1  0  0  0  0
 94 95  1  0  0  0  0
 95 96  1  0  0  0  0
 96 91  1  0  0  0  0
 95 97  1  1  0  0  0
 93 98  1  1  0  0  0
 92 99  1  1  0  0  0
 91100  1  1  0  0  0
100101  1  0  0  0  0
 94117  1  6  0  0  0
102103  1  0  0  0  0
103104  1  0  0  0  0
104105  1  0  0  0  0
105106  1  0  0  0  0
106107  1  0  0  0  0
107102  1  0  0  0  0
106108  1  1  0  0  0
104109  1  1  0  0  0
103110  1  1  0  0  0
102111  1  1  0  0  0
111112  1  0  0  0  0
105121  1  6  0  0  0
 63 13  1  0  0  0  0
A   76
R1
A   77
R2
A   79
R3
M  END

>  <symbol>
GalNAc3C62r

>  <m_abbr>
GalNAc3C62r

>  <m_type>
rna

>  <m_subtype>
natural

>  <m_RgroupIdx>
75,76,78

>  <m_Rgroups>
H,H,OH

$$$$

MolEngine07221613482D

 16 15  0  0  0  0            999 V2000
    1.3189    0.0000    0.0000 O   0  0  0  0  0  0  0  0  0  0  0  0
    2.6378    0.7616    0.0000 C   0  0  0  0  0  0  0  0  0  0  0  0
    3.9567    0.0000    0.0000 C   0  0  0  0  0  0  0  0  0  0  0  0
    5.2756    0.7616    0.0000 C   0  0  0  0  0  0  0  0  0  0  0  0
    6.5943    0.0000    0.0000 C   0  0  0  0  0  0  0  0  0  0  0  0
    7.9132    0.7616    0.0000 C   0  0  0  0  0  0  0  0  0  0  0  0
    9.2321    0.0000    0.0000 C   0  0  0  0  0  0  0  0  0  0  0  0
   10.5508    0.7616    0.0000 C   0  0  0  0  0  0  0  0  0  0  0  0
   11.8697    0.0000    0.0000 C   0  0  0  0  0  0  0  0  0  0  0  0
   13.1886    0.7616    0.0000 C   0  0  0  0  0  0  0  0  0  0  0  0
   14.5073    0.0000    0.0000 C   0  0  0  0  0  0  0  0  0  0  0  0
   15.8262    0.7616    0.0000 C   0  0  0  0  0  0  0  0  0  0  0  0
   17.1451    0.0000    0.0000 C   0  0  0  0  0  0  0  0  0  0  0  0
   18.4639    0.7616    0.0000 O   0  0  0  0  0  0  0  0  0  0  0  0
    0.0000    0.7615    0.0000 R#  0  0  0  0  0  0  0  0  0  0  0  0
   19.7829    0.0001    0.0000 R#  0  0  0  0  0  0  0  0  0  0  0  0
  2  1  1  0  0  0  0
  3  2  1  0  0  0  0
  4  3  1  0  0  0  0
  5  4  1  0  0  0  0
  6  5  1  0  0  0  0
  7  6  1  0  0  0  0
  8  7  1  0  0  0  0
  9  8  1  0  0  0  0
 10  9  1  0  0  0  0
 11 10  1  0  0  0  0
 12 11  1  0  0  0  0
 13 12  1  0  0  0  0
 14 13  1  0  0  0  0
  1 15  1  0  0  0  0
 14 16  1  0  0  0  0
A   15
R1
A   16
R2
M  END

>  <symbol>
oC12o

>  <m_abbr>
oC12o

>  <m_type>
rna

>  <m_subtype>
natural

>  <m_RgroupIdx>
14,15

>  <m_Rgroups>
H,H

$$$$

MolEngine07221613482D

 12 12  0  0  0  0            999 V2000
    2.5903    4.1942    0.0000 C   0  0  0  0  0  0  0  0  0  0  0  0
    3.0332    2.7370    0.0000 C   0  0  0  0  0  0  0  0  0  0  0  0
    4.5560    2.7080    0.0000 C   0  0  0  0  0  0  0  0  0  0  0  0
    5.0541    4.1473    0.0000 C   0  0  0  0  0  0  0  0  0  0  0  0
    3.8392    5.0657    0.0000 O   0  0  0  0  0  0  0  0  0  0  0  0
    1.1510    4.6923    0.0000 C   0  0  0  0  0  0  0  0  0  0  0  0
    2.1148    1.5221    0.0000 O   0  0  0  0  0  0  0  0  0  0  0  0
    0.0000    3.6949    0.0000 R#  0  0  0  0  0  0  0  0  0  0  0  0
    2.1655    0.0000    0.0000 R#  0  0  0  0  0  0  0  0  0  0  0  0
    6.5112    4.5903    0.0000 R#  0  0  0  0  0  0  0  0  0  0  0  0
    5.4276    1.4591    0.0000 O   0  0  0  0  0  0  0  0  0  0  0  0
    6.8987    1.0649    0.0000 C   0  0  0  0  0  0  0  0  0  0  0  0
  1  2  1  0  0  0  0
  2  3  1  0  0  0  0
  3  4  1  0  0  0  0
  4  5  1  0  0  0  0
  5  1  1  0  0  0  0
  1  6  1  1  0  0  0
  2  7  1  6  0  0  0
  6  8  1  0  0  0  0
  7  9  1  0  0  0  0
  4 10  1  1  0  0  0
  3 11  1  6  0  0  0
 11 12  1  0  0  0  0
A    8
R1
A    9
R2
A   10
R3
M  END

>  <symbol>
d5m

>  <m_abbr>
d5m

>  <m_type>
rna

>  <m_subtype>
natural

>  <m_RgroupIdx>
7,8,9

>  <m_Rgroups>
H,H,OH

$$$$

MolEngine07221613482D

 16 17  0  0  0  0            999 V2000
    1.3587    8.8208    0.0000 R#  0  0  0  0  0  0  0  0  0  0  0  0
    1.3587    7.2978    0.0000 P   0  0  0  0  0  0  0  0  0  0  0  0
    0.0000    6.2984    0.0000 O   0  0  0  0  0  0  0  0  0  0  0  0
    0.0397    5.0133    0.0000 C   0  0  0  0  0  0  0  0  0  0  0  0
    1.3587    4.2519    0.0000 C   0  0  0  0  0  0  0  0  0  0  0  0
    2.6775    5.0133    0.0000 C   0  0  0  0  0  0  0  0  0  0  0  0
    2.6775    6.5363    0.0000 O   0  0  0  0  0  0  0  0  0  0  0  0
    4.4748    2.7552    0.0000 C   0  0  0  0  0  0  0  0  0  0  0  0
    5.9978    2.7552    0.0000 C   0  0  0  0  0  0  0  0  0  0  0  0
    6.4686    4.2037    0.0000 C   0  0  0  0  0  0  0  0  0  0  0  0
    5.2363    5.0988    0.0000 O   0  0  0  0  0  0  0  0  0  0  0  0
    4.0043    4.2037    0.0000 C   0  0  0  0  0  0  0  0  0  0  0  0
    0.1628    8.4540    0.0000 O   0  0  0  0  0  0  0  0  0  0  0  0
    3.5797    1.5230    0.0000 O   0  0  0  0  0  0  0  0  0  0  0  0
    7.9170    4.6742    0.0000 R#  0  0  0  0  0  0  0  0  0  0  0  0
    3.5797    0.0000    0.0000 R#  0  0  0  0  0  0  0  0  0  0  0  0
  1  2  1  0  0  0  0
  2  3  1  6  0  0  0
  3  4  1  0  0  0  0
  4  5  1  0  0  0  0
  5  6  1  0  0  0  0
  6  7  1  6  0  0  0
  7  2  1  0  0  0  0
  8  9  1  0  0  0  0
  9 10  1  0  0  0  0
 10 11  1  0  0  0  0
 12 11  1  1  0  0  0
 12  8  1  0  0  0  0
 12  6  1  0  0  0  0
  2 13  2  0  0  0  0
  8 14  1  6  0  0  0
 10 15  1  1  0  0  0
 14 16  1  0  0  0  0
A    1
R1
A   15
R3
A   16
R2
M  END

>  <symbol>
SRpabCNA

>  <m_abbr>
SRpabCNA

>  <m_type>
rna

>  <m_subtype>
natural

>  <m_RgroupIdx>
0,15,14

>  <m_Rgroups>
H,H,OH

$$$$

MolEngine07221613482D

 40 40  0  0  0  0            999 V2000
    3.9182   20.0222    0.0000 C   0  0  0  0  0  0  0  0  0  0  0  0
    4.2956   18.5467    0.0000 C   0  0  0  0  0  0  0  0  0  0  0  0
    5.8340   18.5407    0.0000 C   0  0  0  0  0  0  0  0  0  0  0  0
    6.3770   19.9892    0.0000 C   0  0  0  0  0  0  0  0  0  0  0  0
    5.2073   20.9656    0.0000 O   0  0  0  0  0  0  0  0  0  0  0  0
    3.3549   17.3490    0.0000 O   0  0  0  0  0  0  0  0  0  0  0  0
    2.4846   20.5362    0.0000 C   0  0  0  0  0  0  0  0  0  0  0  0
    7.8523   20.3798    0.0000 R#  0  0  0  0  0  0  0  0  0  0  0  0
    1.3226   19.5517    0.0000 O   0  0  0  0  0  0  0  0  0  0  0  0
    0.0000   20.3069    0.0000 R#  0  0  0  0  0  0  0  0  0  0  0  0
    3.3621   15.8260    0.0000 R#  0  0  0  0  0  0  0  0  0  0  0  0
    6.6543   17.2581    0.0000 O   0  0  0  0  0  0  0  0  0  0  0  0
   10.4681   15.9573    0.0000 C   0  0  0  0  0  0  0  0  0  0  0  0
    8.9451   15.9501    0.0000 C   0  0  0  0  0  0  0  0  0  0  0  0
    8.1773   17.2654    0.0000 C   0  0  0  0  0  0  0  0  0  0  0  0
   11.2359   14.6420    0.0000 C   0  0  0  0  0  0  0  0  0  0  0  0
   12.7588   14.6493    0.0000 C   0  0  0  0  0  0  0  0  0  0  0  0
   13.5266   13.3340    0.0000 C   0  0  0  0  0  0  0  0  0  0  0  0
   15.8264   12.0312    0.0000 C   0  0  0  0  0  0  0  0  0  0  0  0
   17.3493   12.0489    0.0000 C   0  0  0  0  0  0  0  0  0  0  0  0
   18.1260   10.7389    0.0000 C   0  0  0  0  0  0  0  0  0  0  0  0
   19.6489   10.7565    0.0000 C   0  0  0  0  0  0  0  0  0  0  0  0
   20.4256    9.4465    0.0000 C   0  0  0  0  0  0  0  0  0  0  0  0
   21.7533    8.7003    0.0000 C   0  0  0  0  0  0  0  0  0  0  0  0
   23.2762    8.7180    0.0000 C   0  0  0  0  0  0  0  0  0  0  0  0
   24.0530    7.4079    0.0000 C   0  0  0  0  0  0  0  0  0  0  0  0
   25.3807    6.6618    0.0000 C   0  0  0  0  0  0  0  0  0  0  0  0
   26.9036    6.6795    0.0000 C   0  0  0  0  0  0  0  0  0  0  0  0
   27.6803    5.3694    0.0000 C   0  0  0  0  0  0  0  0  0  0  0  0
   29.0080    4.6233    0.0000 C   0  0  0  0  0  0  0  0  0  0  0  0
   30.5309    4.6409    0.0000 C   0  0  0  0  0  0  0  0  0  0  0  0
   31.3077    3.3309    0.0000 C   0  0  0  0  0  0  0  0  0  0  0  0
   32.6354    2.5847    0.0000 C   0  0  0  0  0  0  0  0  0  0  0  0
   34.1583    2.6024    0.0000 C   0  0  0  0  0  0  0  0  0  0  0  0
   34.9350    1.2924    0.0000 C   0  0  0  0  0  0  0  0  0  0  0  0
   36.4579    1.3100    0.0000 C   0  0  0  0  0  0  0  0  0  0  0  0
   37.2346    0.0000    0.0000 C   0  0  0  0  0  0  0  0  0  0  0  0
   38.7575    0.0176    0.0000 C   0  0  0  0  0  0  0  0  0  0  0  0
   15.0802   10.7035    0.0000 O   0  0  0  0  0  0  0  0  0  0  0  0
   15.0496   13.3413    0.0000 N   0  0  0  0  0  0  0  0  0  0  0  0
  1  2  1  0  0  0  0
  2  3  1  0  0  0  0
  3  4  1  0  0  0  0
  4  5  1  0  0  0  0
  5  1  1  0  0  0  0
  2  6  1  6  0  0  0
  3 12  1  6  0  0  0
  1  7  1  1  0  0  0
  4  8  1  1  0  0  0
  7  9  1  0  0  0  0
  9 10  1  0  0  0  0
  6 11  1  0  0  0  0
 14 15  1  0  0  0  0
 13 14  1  0  0  0  0
 12 15  1  0  0  0  0
 13 16  1  0  0  0  0
 16 17  1  0  0  0  0
 17 18  1  0  0  0  0
 18 40  1  0  0  0  0
 19 20  1  0  0  0  0
 20 21  1  0  0  0  0
 21 22  1  0  0  0  0
 22 23  1  0  0  0  0
 23 24  2  0  0  0  0
 24 25  1  0  0  0  0
 25 26  1  0  0  0  0
 26 27  2  0  0  0  0
 27 28  1  0  0  0  0
 28 29  1  0  0  0  0
 29 30  2  0  0  0  0
 30 31  1  0  0  0  0
 31 32  1  0  0  0  0
 32 33  2  0  0  0  0
 33 34  1  0  0  0  0
 34 35  1  0  0  0  0
 35 36  1  0  0  0  0
 36 37  1  0  0  0  0
 37 38  1  0  0  0  0
 19 39  2  0  0  0  0
 19 40  1  0  0  0  0
A    8
R3
A   10
R1
A   11
R2
M  END

>  <symbol>
arachidonoylnC62r

>  <m_abbr>
arachidonoylnC62r

>  <m_type>
rna

>  <m_subtype>
natural

>  <m_RgroupIdx>
9,10,7

>  <m_Rgroups>
H,H,OH

$$$$

MolEngine07221613482D

 13 14  0  0  0  0            999 V2000
    4.0690    4.2992    0.0000 C   0  0  0  0  0  0  0  0  0  0  0  0
    4.4394    2.8219    0.0000 C   0  0  0  0  0  0  0  0  0  0  0  0
    5.9777    2.8086    0.0000 C   0  0  0  0  0  0  0  0  0  0  0  0
    6.5295    4.2595    0.0000 C   0  0  0  0  0  0  0  0  0  0  0  0
    5.3626    5.2365    0.0000 C   0  0  0  0  0  0  0  0  0  0  0  0
    3.9159    1.5230    0.0000 O   0  0  0  0  0  0  0  0  0  0  0  0
    2.6378    4.8201    0.0000 C   0  0  0  0  0  0  0  0  0  0  0  0
    8.0047    4.6381    0.0000 R#  0  0  0  0  0  0  0  0  0  0  0  0
    1.4711    3.8411    0.0000 O   0  0  0  0  0  0  0  0  0  0  0  0
    0.0000    4.2353    0.0000 R#  0  0  0  0  0  0  0  0  0  0  0  0
    3.9159    0.0000    0.0000 R#  0  0  0  0  0  0  0  0  0  0  0  0
    5.5275    3.6475    0.0000 C   0  0  0  0  0  0  0  0  0  0  0  0
    6.8369    1.5510    0.0000 F   0  0  0  0  0  0  0  0  0  0  0  0
  1  2  1  0  0  0  0
  2  3  1  0  0  0  0
  3  4  1  0  0  0  0
  4  5  1  0  0  0  0
  5  1  1  0  0  0  0
  2  6  1  6  0  0  0
  1  7  1  0  0  0  0
  4  8  1  0  0  0  0
  7  9  1  0  0  0  0
  9 10  1  0  0  0  0
  6 11  1  0  0  0  0
  1 12  1  6  0  0  0
  5 12  1  6  0  0  0
  3 13  1  6  0  0  0
A    8
R3
A   10
R1
A   11
R2
M  END

>  <symbol>
fl2Nmc

>  <m_abbr>
fl2Nmc

>  <m_type>
rna

>  <m_subtype>
natural

>  <m_RgroupIdx>
9,10,7

>  <m_Rgroups>
H,H,OH

$$$$

MolEngine07221613482D

 16 18  0  0  0  0            999 V2000
    3.4128    2.9666    0.0000 C   0  0  0  0  0  0  0  0  0  0  0  0
    4.9358    2.9666    0.0000 C   0  0  0  0  0  0  0  0  0  0  0  0
    5.4064    4.4150    0.0000 C   0  0  0  0  0  0  0  0  0  0  0  0
    4.1743    5.3101    0.0000 O   0  0  0  0  0  0  0  0  0  0  0  0
    2.9421    4.4150    0.0000 C   0  0  0  0  0  0  0  0  0  0  0  0
    2.5479    2.9438    0.0000 C   0  0  0  0  0  0  0  0  0  0  0  0
    4.9675    1.5418    0.0000 O   0  0  0  0  0  0  0  0  0  0  0  0
    1.8653    5.4920    0.0000 C   0  0  0  0  0  0  0  0  0  0  0  0
    0.3941    5.0978    0.0000 C   0  0  0  0  0  0  0  0  0  0  0  0
    0.0000    3.6267    0.0000 C   0  0  0  0  0  0  0  0  0  0  0  0
    1.0768    2.5497    0.0000 C   0  0  0  0  0  0  0  0  0  0  0  0
    6.8548    4.8857    0.0000 R#  0  0  0  0  0  0  0  0  0  0  0  0
    2.2594    6.9631    0.0000 O   0  0  0  0  0  0  0  0  0  0  0  0
    3.2580    1.5230    0.0000 O   0  0  0  0  0  0  0  0  0  0  0  0
    3.2580    0.0000    0.0000 R#  0  0  0  0  0  0  0  0  0  0  0  0
    1.1825    8.0400    0.0000 R#  0  0  0  0  0  0  0  0  0  0  0  0
  1  2  1  0  0  0  0
  2  3  1  0  0  0  0
  3  4  1  0  0  0  0
  5  4  1  6  0  0  0
  5  1  1  0  0  0  0
  5  6  1  0  0  0  0
  2  7  1  6  0  0  0
  7  6  1  0  0  0  0
  5  8  1  0  0  0  0
  8  9  1  0  0  0  0
  9 10  1  0  0  0  0
 10 11  1  0  0  0  0
  6 11  1  1  0  0  0
  3 12  1  1  0  0  0
  8 13  1  1  0  0  0
  1 14  1  6  0  0  0
 14 15  1  0  0  0  0
 13 16  1  0  0  0  0
A   12
R3
A   15
R2
A   16
R1
M  END

>  <symbol>
trina1

>  <m_abbr>
trina1

>  <m_type>
rna

>  <m_subtype>
natural

>  <m_RgroupIdx>
15,14,11

>  <m_Rgroups>
H,H,OH

$$$$

MolEngine07221613482D

 11 11  0  0  0  0            999 V2000
    2.5902    4.1942    0.0000 C   0  0  0  0  0  0  0  0  0  0  0  0
    3.0332    2.7371    0.0000 C   0  0  0  0  0  0  0  0  0  0  0  0
    4.5560    2.7081    0.0000 C   0  0  0  0  0  0  0  0  0  0  0  0
    5.0541    4.1473    0.0000 C   0  0  0  0  0  0  0  0  0  0  0  0
    3.8392    5.0658    0.0000 O   0  0  0  0  0  0  0  0  0  0  0  0
    1.1510    4.6923    0.0000 C   0  0  0  0  0  0  0  0  0  0  0  0
    2.1148    1.5222    0.0000 N   0  0  0  0  0  0  0  0  0  0  0  0
    0.0000    3.6950    0.0000 R#  0  0  0  0  0  0  0  0  0  0  0  0
    2.1655    0.0000    0.0000 R#  0  0  0  0  0  0  0  0  0  0  0  0
    6.5112    4.5903    0.0000 R#  0  0  0  0  0  0  0  0  0  0  0  0
    0.8628    6.1878    0.0000 O   0  0  0  0  0  0  0  0  0  0  0  0
  1  2  1  0  0  0  0
  2  3  1  0  0  0  0
  3  4  1  0  0  0  0
  4  5  1  0  0  0  0
  5  1  1  0  0  0  0
  1  6  1  1  0  0  0
  2  7  1  6  0  0  0
  6  8  1  0  0  0  0
  7  9  1  0  0  0  0
  4 10  1  1  0  0  0
  6 11  2  0  0  0  0
A    8
R1
A    9
R2
A   10
R3
M  END

>  <symbol>
n3co4d

>  <m_abbr>
n3co4d

>  <m_type>
rna

>  <m_subtype>
natural

>  <m_RgroupIdx>
7,8,9

>  <m_Rgroups>
H,H,OH

$$$$

MolEngine07221613482D

 13 13  0  0  0  0            999 V2000
    4.0295    4.1942    0.0000 C   0  0  0  0  0  0  0  0  0  0  0  0
    4.4724    2.7370    0.0000 C   0  0  0  0  0  0  0  0  0  0  0  0
    5.9952    2.7080    0.0000 C   0  0  0  0  0  0  0  0  0  0  0  0
    6.4933    4.1473    0.0000 C   0  0  0  0  0  0  0  0  0  0  0  0
    5.2784    5.0657    0.0000 O   0  0  0  0  0  0  0  0  0  0  0  0
    2.5902    4.6923    0.0000 C   0  0  0  0  0  0  0  0  0  0  0  0
    3.5540    1.5221    0.0000 C   0  0  0  0  0  0  0  0  0  0  0  0
    1.4392    3.6949    0.0000 O   0  0  0  0  0  0  0  0  0  0  0  0
    0.0000    4.1930    0.0000 R#  0  0  0  0  0  0  0  0  0  0  0  0
    3.6047    0.0000    0.0000 R#  0  0  0  0  0  0  0  0  0  0  0  0
    7.9504    4.5903    0.0000 R#  0  0  0  0  0  0  0  0  0  0  0  0
    6.8668    1.4591    0.0000 O   0  0  0  0  0  0  0  0  0  0  0  0
    8.3842    1.5894    0.0000 C   0  0  0  0  0  0  0  0  0  0  0  0
  1  2  1  0  0  0  0
  2  3  1  0  0  0  0
  3  4  1  0  0  0  0
  4  5  1  0  0  0  0
  5  1  1  0  0  0  0
  1  6  1  1  0  0  0
  2  7  1  6  0  0  0
  6  8  1  0  0  0  0
  8  9  1  0  0  0  0
  7 10  1  0  0  0  0
  4 11  1  1  0  0  0
  3 12  1  6  0  0  0
 12 13  1  0  0  0  0
A    9
R1
A   10
R2
A   11
R3
M  END

>  <symbol>
me3m

>  <m_abbr>
me3m

>  <m_type>
rna

>  <m_subtype>
natural

>  <m_RgroupIdx>
8,9,10

>  <m_Rgroups>
H,OH,OH

$$$$

MolEngine07221613482D

 12 12  0  0  0  0            999 V2000
    4.0295    4.1941    0.0000 C   0  0  0  0  0  0  0  0  0  0  0  0
    4.4725    2.7370    0.0000 C   0  0  0  0  0  0  0  0  0  0  0  0
    5.9952    2.7080    0.0000 C   0  0  0  0  0  0  0  0  0  0  0  0
    6.4933    4.1473    0.0000 C   0  0  0  0  0  0  0  0  0  0  0  0
    5.2784    5.0657    0.0000 O   0  0  0  0  0  0  0  0  0  0  0  0
    2.5902    4.6922    0.0000 C   0  0  0  0  0  0  0  0  0  0  0  0
    3.5540    1.5221    0.0000 O   0  0  0  0  0  0  0  0  0  0  0  0
    1.4393    3.6949    0.0000 O   0  0  0  0  0  0  0  0  0  0  0  0
    0.0000    4.1930    0.0000 R#  0  0  0  0  0  0  0  0  0  0  0  0
    3.6047    0.0000    0.0000 R#  0  0  0  0  0  0  0  0  0  0  0  0
    6.8668    1.4591    0.0000 O   0  0  0  0  0  0  0  0  0  0  0  0
    7.9505    4.5902    0.0000 R#  0  0  0  0  0  0  0  0  0  0  0  0
  1  2  1  0  0  0  0
  2  3  1  0  0  0  0
  3  4  1  0  0  0  0
  4  5  1  0  0  0  0
  5  1  1  0  0  0  0
  1  6  1  1  0  0  0
  2  7  1  6  0  0  0
  6  8  1  0  0  0  0
  8  9  1  0  0  0  0
  7 10  1  0  0  0  0
  3 11  1  1  0  0  0
  4 12  1  1  0  0  0
A    9
R1
A   10
R2
A   12
R3
M  END

>  <symbol>
ar

>  <m_abbr>
ar

>  <m_type>
rna

>  <m_subtype>
natural

>  <m_RgroupIdx>
8,9,11

>  <m_Rgroups>
H,H,OH

$$$$

MolEngine07221613482D

 13 12  0  0  0  0            999 V2000
    3.1559    4.9578    0.0000 C   0  0  0  0  0  0  0  0  0  0  0  0
    3.5415    3.4864    0.0000 N   0  0  0  0  0  0  0  0  0  0  0  0
    5.0789    3.4915    0.0000 C   0  0  0  0  0  0  0  0  0  0  0  0
    5.6142    4.9477    0.0000 C   0  0  0  0  0  0  0  0  0  0  0  0
    2.6105    2.2839    0.0000 C   0  0  0  0  0  0  0  0  0  0  0  0
    1.7175    5.4627    0.0000 C   0  0  0  0  0  0  0  0  0  0  0  0
    7.0831    5.3434    0.0000 R#  0  0  0  0  0  0  0  0  0  0  0  0
    1.4359    6.9594    0.0000 N   0  0  0  0  0  0  0  0  0  0  0  0
    2.6105    0.7617    0.0000 C   0  0  0  0  0  0  0  0  0  0  0  0
    3.9297    0.0007    0.0000 R#  0  0  0  0  0  0  0  0  0  0  0  0
    0.0000    7.4617    0.0000 R#  0  0  0  0  0  0  0  0  0  0  0  0
    5.9525    2.2439    0.0000 O   0  0  0  0  0  0  0  0  0  0  0  0
    1.2917    0.0000    0.0000 O   0  0  0  0  0  0  0  0  0  0  0  0
  1  2  1  0  0  0  0
  2  3  1  0  0  0  0
  3  4  1  0  0  0  0
  2  5  1  0  0  0  0
  1  6  1  0  0  0  0
  4  7  1  0  0  0  0
  6  8  1  0  0  0  0
  5  9  1  0  0  0  0
  9 10  1  0  0  0  0
  8 11  1  0  0  0  0
  3 12  2  0  0  0  0
  9 13  2  0  0  0  0
A    7
R3
A   10
R2
A   11
R1
M  END

>  <symbol>
pna

>  <m_abbr>
pna

>  <m_type>
rna

>  <m_subtype>
natural

>  <m_RgroupIdx>
10,9,6

>  <m_Rgroups>
H,OH,OH

$$$$

MolEngine07221613482D

 18 17  0  0  0  0            999 V2000
    5.9250    4.9578    0.0000 C   0  0  0  0  0  0  0  0  0  0  0  0
    6.3106    3.4864    0.0000 N   0  0  0  0  0  0  0  0  0  0  0  0
    7.8480    3.4915    0.0000 C   0  0  0  0  0  0  0  0  0  0  0  0
    8.3833    4.9477    0.0000 C   0  0  0  0  0  0  0  0  0  0  0  0
    4.4866    5.4627    0.0000 C   0  0  0  0  0  0  0  0  0  0  0  0
    9.8521    5.3434    0.0000 R#  0  0  0  0  0  0  0  0  0  0  0  0
    4.2050    6.9594    0.0000 N   0  0  0  0  0  0  0  0  0  0  0  0
    5.3795    0.7617    0.0000 C   0  0  0  0  0  0  0  0  0  0  0  0
    6.6987    0.0007    0.0000 R#  0  0  0  0  0  0  0  0  0  0  0  0
    2.7691    7.4617    0.0000 R#  0  0  0  0  0  0  0  0  0  0  0  0
    8.7216    2.2439    0.0000 O   0  0  0  0  0  0  0  0  0  0  0  0
    4.0607    0.0000    0.0000 O   0  0  0  0  0  0  0  0  0  0  0  0
    5.3795    2.2839    0.0000 C   0  0  0  0  0  0  0  0  0  0  0  0
    3.8924    2.6124    0.0000 C   0  0  0  0  0  0  0  0  0  0  0  0
    3.4334    4.0646    0.0000 C   0  0  0  0  0  0  0  0  0  0  0  0
    1.9462    4.3931    0.0000 C   0  0  0  0  0  0  0  0  0  0  0  0
    1.4871    5.8453    0.0000 C   0  0  0  0  0  0  0  0  0  0  0  0
    0.0000    6.1738    0.0000 N   0  0  0  0  0  0  0  0  0  0  0  0
  1  2  1  0  0  0  0
  2  3  1  0  0  0  0
  3  4  1  0  0  0  0
  2 13  1  0  0  0  0
  1  5  1  0  0  0  0
  4  6  1  0  0  0  0
  5  7  1  0  0  0  0
 13  8  1  0  0  0  0
  8  9  1  0  0  0  0
  7 10  1  0  0  0  0
  3 11  2  0  0  0  0
  8 12  2  0  0  0  0
 13 14  1  1  0  0  0
 14 15  1  0  0  0  0
 15 16  1  0  0  0  0
 16 17  1  0  0  0  0
 17 18  1  0  0  0  0
A    6
R3
A    9
R2
A   10
R1
M  END

>  <symbol>
Dlyspna

>  <m_abbr>
Dlyspna

>  <m_type>
rna

>  <m_subtype>
natural

>  <m_RgroupIdx>
9,8,5

>  <m_Rgroups>
H,OH,OH

$$$$

MolEngine07221613482D

 18 17  0  0  0  0            999 V2000
    5.9250    4.9578    0.0000 C   0  0  0  0  0  0  0  0  0  0  0  0
    6.3106    3.4864    0.0000 N   0  0  0  0  0  0  0  0  0  0  0  0
    7.8480    3.4915    0.0000 C   0  0  0  0  0  0  0  0  0  0  0  0
    8.3833    4.9477    0.0000 C   0  0  0  0  0  0  0  0  0  0  0  0
    4.4866    5.4627    0.0000 C   0  0  0  0  0  0  0  0  0  0  0  0
    9.8521    5.3434    0.0000 R#  0  0  0  0  0  0  0  0  0  0  0  0
    4.2050    6.9594    0.0000 N   0  0  0  0  0  0  0  0  0  0  0  0
    5.3795    0.7617    0.0000 C   0  0  0  0  0  0  0  0  0  0  0  0
    6.6987    0.0007    0.0000 R#  0  0  0  0  0  0  0  0  0  0  0  0
    2.7691    7.4617    0.0000 R#  0  0  0  0  0  0  0  0  0  0  0  0
    8.7216    2.2439    0.0000 O   0  0  0  0  0  0  0  0  0  0  0  0
    4.0607    0.0000    0.0000 O   0  0  0  0  0  0  0  0  0  0  0  0
    5.3795    2.2839    0.0000 C   0  0  0  0  0  0  0  0  0  0  0  0
    3.8924    2.6124    0.0000 C   0  0  0  0  0  0  0  0  0  0  0  0
    3.4334    4.0646    0.0000 C   0  0  0  0  0  0  0  0  0  0  0  0
    1.9462    4.3931    0.0000 C   0  0  0  0  0  0  0  0  0  0  0  0
    1.4871    5.8453    0.0000 C   0  0  0  0  0  0  0  0  0  0  0  0
    0.0000    6.1738    0.0000 N   0  0  0  0  0  0  0  0  0  0  0  0
  1  2  1  0  0  0  0
  2  3  1  0  0  0  0
  3  4  1  0  0  0  0
  2 13  1  0  0  0  0
  1  5  1  0  0  0  0
  4  6  1  0  0  0  0
  5  7  1  0  0  0  0
 13  8  1  0  0  0  0
  8  9  1  0  0  0  0
  7 10  1  0  0  0  0
  3 11  2  0  0  0  0
  8 12  2  0  0  0  0
 13 14  1  6  0  0  0
 14 15  1  0  0  0  0
 15 16  1  0  0  0  0
 16 17  1  0  0  0  0
 17 18  1  0  0  0  0
A    6
R3
A    9
R2
A   10
R1
M  END

>  <symbol>
Llyspna

>  <m_abbr>
Llyspna

>  <m_type>
rna

>  <m_subtype>
natural

>  <m_RgroupIdx>
9,8,5

>  <m_Rgroups>
H,OH,OH

$$$$

MolEngine07221613482D

 11 11  0  0  0  0            999 V2000
    4.0294    4.1942    0.0000 C   0  0  0  0  0  0  0  0  0  0  0  0
    4.4724    2.7370    0.0000 C   0  0  0  0  0  0  0  0  0  0  0  0
    5.9952    2.7080    0.0000 C   0  0  0  0  0  0  0  0  0  0  0  0
    6.4933    4.1473    0.0000 C   0  0  0  0  0  0  0  0  0  0  0  0
    5.2784    5.0657    0.0000 O   0  0  0  0  0  0  0  0  0  0  0  0
    2.5902    4.6923    0.0000 C   0  0  0  0  0  0  0  0  0  0  0  0
    3.5539    1.5221    0.0000 C   0  0  0  0  0  0  0  0  0  0  0  0
    1.4392    3.6949    0.0000 O   0  0  0  0  0  0  0  0  0  0  0  0
    0.0000    4.1930    0.0000 R#  0  0  0  0  0  0  0  0  0  0  0  0
    3.6047    0.0000    0.0000 R#  0  0  0  0  0  0  0  0  0  0  0  0
    7.9504    4.5903    0.0000 R#  0  0  0  0  0  0  0  0  0  0  0  0
  1  2  1  0  0  0  0
  2  3  1  0  0  0  0
  3  4  1  0  0  0  0
  4  5  1  0  0  0  0
  5  1  1  0  0  0  0
  1  6  1  1  0  0  0
  2  7  1  6  0  0  0
  6  8  1  0  0  0  0
  8  9  1  0  0  0  0
  7 10  1  0  0  0  0
  4 11  1  1  0  0  0
A    9
R1
A   10
R2
A   11
R3
M  END

>  <symbol>
me3d

>  <m_abbr>
me3d

>  <m_type>
rna

>  <m_subtype>
natural

>  <m_RgroupIdx>
8,9,10

>  <m_Rgroups>
H,OH,OH

$$$$

MolEngine07221613482D

 11 11  0  0  0  0            999 V2000
    4.0294    4.1942    0.0000 C   0  0  0  0  0  0  0  0  0  0  0  0
    4.4724    2.7370    0.0000 C   0  0  0  0  0  0  0  0  0  0  0  0
    5.9952    2.7080    0.0000 C   0  0  0  0  0  0  0  0  0  0  0  0
    6.4933    4.1473    0.0000 C   0  0  0  0  0  0  0  0  0  0  0  0
    5.2784    5.0657    0.0000 O   0  0  0  0  0  0  0  0  0  0  0  0
    2.5902    4.6923    0.0000 C   0  0  0  0  0  0  0  0  0  0  0  0
    3.5539    1.5221    0.0000 N   0  0  0  0  0  0  0  0  0  0  0  0
    1.4392    3.6949    0.0000 O   0  0  0  0  0  0  0  0  0  0  0  0
    0.0000    4.1930    0.0000 R#  0  0  0  0  0  0  0  0  0  0  0  0
    3.6047    0.0000    0.0000 R#  0  0  0  0  0  0  0  0  0  0  0  0
    7.9504    4.5903    0.0000 R#  0  0  0  0  0  0  0  0  0  0  0  0
  1  2  1  0  0  0  0
  2  3  1  0  0  0  0
  3  4  1  0  0  0  0
  4  5  1  0  0  0  0
  5  1  1  0  0  0  0
  1  6  1  1  0  0  0
  2  7  1  6  0  0  0
  6  8  1  0  0  0  0
  8  9  1  0  0  0  0
  7 10  1  0  0  0  0
  4 11  1  1  0  0  0
A    9
R1
A   10
R2
A   11
R3
M  END

>  <symbol>
n3d

>  <m_abbr>
n3d

>  <m_type>
rna

>  <m_subtype>
natural

>  <m_RgroupIdx>
8,9,10

>  <m_Rgroups>
H,H,OH

$$$$

MolEngine07221613482D

 11 11  0  0  0  0            999 V2000
    4.0295    4.1942    0.0000 C   0  0  0  0  0  0  0  0  0  0  0  0
    4.4725    2.7370    0.0000 C   0  0  0  0  0  0  0  0  0  0  0  0
    5.9952    2.7080    0.0000 C   0  0  0  0  0  0  0  0  0  0  0  0
    6.4933    4.1473    0.0000 C   0  0  0  0  0  0  0  0  0  0  0  0
    5.2784    5.0657    0.0000 O   0  0  0  0  0  0  0  0  0  0  0  0
    2.5903    4.6923    0.0000 C   0  0  0  0  0  0  0  0  0  0  0  0
    3.5540    1.5221    0.0000 O   0  0  0  0  0  0  0  0  0  0  0  0
    1.4393    3.6949    0.0000 N   0  0  0  0  0  0  0  0  0  0  0  0
    0.0000    4.1930    0.0000 R#  0  0  0  0  0  0  0  0  0  0  0  0
    3.6048    0.0000    0.0000 R#  0  0  0  0  0  0  0  0  0  0  0  0
    7.9505    4.5903    0.0000 R#  0  0  0  0  0  0  0  0  0  0  0  0
  1  2  1  0  0  0  0
  2  3  1  0  0  0  0
  3  4  1  0  0  0  0
  4  5  1  0  0  0  0
  5  1  1  0  0  0  0
  1  6  1  1  0  0  0
  2  7  1  6  0  0  0
  6  8  1  0  0  0  0
  8  9  1  0  0  0  0
  7 10  1  0  0  0  0
  4 11  1  1  0  0  0
A    9
R1
A   10
R2
A   11
R3
M  END

>  <symbol>
n5d

>  <m_abbr>
n5d

>  <m_type>
rna

>  <m_subtype>
natural

>  <m_RgroupIdx>
8,9,10

>  <m_Rgroups>
H,H,OH

$$$$

MolEngine07221613482D

 11 11  0  0  0  0            999 V2000
    4.0294    4.1942    0.0000 C   0  0  0  0  0  0  0  0  0  0  0  0
    4.4724    2.7370    0.0000 C   0  0  0  0  0  0  0  0  0  0  0  0
    5.9952    2.7080    0.0000 C   0  0  0  0  0  0  0  0  0  0  0  0
    6.4933    4.1473    0.0000 C   0  0  0  0  0  0  0  0  0  0  0  0
    5.2784    5.0657    0.0000 O   0  0  0  0  0  0  0  0  0  0  0  0
    2.5902    4.6923    0.0000 C   0  0  0  0  0  0  0  0  0  0  0  0
    3.5539    1.5221    0.0000 S   0  0  0  0  0  0  0  0  0  0  0  0
    1.4392    3.6949    0.0000 O   0  0  0  0  0  0  0  0  0  0  0  0
    0.0000    4.1930    0.0000 R#  0  0  0  0  0  0  0  0  0  0  0  0
    3.6047    0.0000    0.0000 R#  0  0  0  0  0  0  0  0  0  0  0  0
    7.9504    4.5903    0.0000 R#  0  0  0  0  0  0  0  0  0  0  0  0
  1  2  1  0  0  0  0
  2  3  1  0  0  0  0
  3  4  1  0  0  0  0
  4  5  1  0  0  0  0
  5  1  1  0  0  0  0
  1  6  1  1  0  0  0
  2  7  1  6  0  0  0
  6  8  1  0  0  0  0
  8  9  1  0  0  0  0
  7 10  1  0  0  0  0
  4 11  1  1  0  0  0
A    9
R1
A   10
R2
A   11
R3
M  END

>  <symbol>
s3d

>  <m_abbr>
s3d

>  <m_type>
rna

>  <m_subtype>
natural

>  <m_RgroupIdx>
8,9,10

>  <m_Rgroups>
H,H,OH

$$$$

MolEngine07221613482D

 11 11  0  0  0  0            999 V2000
    4.0294    4.1942    0.0000 C   0  0  0  0  0  0  0  0  0  0  0  0
    4.4724    2.7370    0.0000 C   0  0  0  0  0  0  0  0  0  0  0  0
    5.9952    2.7080    0.0000 C   0  0  0  0  0  0  0  0  0  0  0  0
    6.4933    4.1473    0.0000 C   0  0  0  0  0  0  0  0  0  0  0  0
    5.2784    5.0657    0.0000 O   0  0  0  0  0  0  0  0  0  0  0  0
    2.5902    4.6923    0.0000 C   0  0  0  0  0  0  0  0  0  0  0  0
    3.5539    1.5221    0.0000 O   0  0  0  0  0  0  0  0  0  0  0  0
    1.4392    3.6949    0.0000 S   0  0  0  0  0  0  0  0  0  0  0  0
    0.0000    4.1930    0.0000 R#  0  0  0  0  0  0  0  0  0  0  0  0
    3.6047    0.0000    0.0000 R#  0  0  0  0  0  0  0  0  0  0  0  0
    7.9504    4.5903    0.0000 R#  0  0  0  0  0  0  0  0  0  0  0  0
  1  2  1  0  0  0  0
  2  3  1  0  0  0  0
  3  4  1  0  0  0  0
  4  5  1  0  0  0  0
  5  1  1  0  0  0  0
  1  6  1  1  0  0  0
  2  7  1  6  0  0  0
  6  8  1  0  0  0  0
  8  9  1  0  0  0  0
  7 10  1  0  0  0  0
  4 11  1  1  0  0  0
A    9
R1
A   10
R2
A   11
R3
M  END

>  <symbol>
s5d

>  <m_abbr>
s5d

>  <m_type>
rna

>  <m_subtype>
natural

>  <m_RgroupIdx>
8,9,10

>  <m_Rgroups>
H,H,OH

$$$$

MolEngine07221613482D

 12 12  0  0  0  0            999 V2000
    4.0295    4.1942    0.0000 C   0  0  0  0  0  0  0  0  0  0  0  0
    4.4724    2.7370    0.0000 C   0  0  0  0  0  0  0  0  0  0  0  0
    5.9952    2.7080    0.0000 C   0  0  0  0  0  0  0  0  0  0  0  0
    6.4933    4.1473    0.0000 C   0  0  0  0  0  0  0  0  0  0  0  0
    5.2784    5.0657    0.0000 O   0  0  0  0  0  0  0  0  0  0  0  0
    2.5902    4.6923    0.0000 C   0  0  0  0  0  0  0  0  0  0  0  0
    3.5540    1.5221    0.0000 C   0  0  0  0  0  0  0  0  0  0  0  0
    1.4392    3.6949    0.0000 O   0  0  0  0  0  0  0  0  0  0  0  0
    0.0000    4.1930    0.0000 R#  0  0  0  0  0  0  0  0  0  0  0  0
    3.6047    0.0000    0.0000 R#  0  0  0  0  0  0  0  0  0  0  0  0
    7.9504    4.5903    0.0000 R#  0  0  0  0  0  0  0  0  0  0  0  0
    6.8668    1.4591    0.0000 O   0  0  0  0  0  0  0  0  0  0  0  0
  1  2  1  0  0  0  0
  2  3  1  0  0  0  0
  3  4  1  0  0  0  0
  4  5  1  0  0  0  0
  5  1  1  0  0  0  0
  1  6  1  1  0  0  0
  2  7  1  6  0  0  0
  6  8  1  0  0  0  0
  8  9  1  0  0  0  0
  7 10  1  0  0  0  0
  4 11  1  1  0  0  0
  3 12  1  6  0  0  0
A    9
R1
A   10
R2
A   11
R3
M  END

>  <symbol>
me3r

>  <m_abbr>
me3r

>  <m_type>
rna

>  <m_subtype>
natural

>  <m_RgroupIdx>
8,9,10

>  <m_Rgroups>
H,OH,OH

$$$$

MolEngine07221613482D

 12 12  0  0  0  0            999 V2000
    4.0295    4.1942    0.0000 C   0  0  0  0  0  0  0  0  0  0  0  0
    4.4724    2.7370    0.0000 C   0  0  0  0  0  0  0  0  0  0  0  0
    5.9952    2.7080    0.0000 C   0  0  0  0  0  0  0  0  0  0  0  0
    6.4933    4.1473    0.0000 C   0  0  0  0  0  0  0  0  0  0  0  0
    5.2784    5.0657    0.0000 O   0  0  0  0  0  0  0  0  0  0  0  0
    2.5902    4.6923    0.0000 C   0  0  0  0  0  0  0  0  0  0  0  0
    3.5540    1.5221    0.0000 C   0  0  0  0  0  0  0  0  0  0  0  0
    1.4392    3.6949    0.0000 O   0  0  0  0  0  0  0  0  0  0  0  0
    0.0000    4.1930    0.0000 R#  0  0  0  0  0  0  0  0  0  0  0  0
    3.6047    0.0000    0.0000 R#  0  0  0  0  0  0  0  0  0  0  0  0
    7.9504    4.5903    0.0000 R#  0  0  0  0  0  0  0  0  0  0  0  0
    6.8668    1.4591    0.0000 F   0  0  0  0  0  0  0  0  0  0  0  0
  1  2  1  0  0  0  0
  2  3  1  0  0  0  0
  3  4  1  0  0  0  0
  4  5  1  0  0  0  0
  5  1  1  0  0  0  0
  1  6  1  1  0  0  0
  2  7  1  6  0  0  0
  6  8  1  0  0  0  0
  8  9  1  0  0  0  0
  7 10  1  0  0  0  0
  4 11  1  1  0  0  0
  3 12  1  6  0  0  0
A    9
R1
A   10
R2
A   11
R3
M  END

>  <symbol>
me3fl2r

>  <m_abbr>
me3fl2r

>  <m_type>
rna

>  <m_subtype>
natural

>  <m_RgroupIdx>
8,9,10

>  <m_Rgroups>
H,OH,OH

$$$$

MolEngine07221613482D

 12 12  0  0  0  0            999 V2000
    4.0295    4.1942    0.0000 C   0  0  0  0  0  0  0  0  0  0  0  0
    4.4724    2.7370    0.0000 C   0  0  0  0  0  0  0  0  0  0  0  0
    5.9952    2.7080    0.0000 C   0  0  0  0  0  0  0  0  0  0  0  0
    6.4933    4.1473    0.0000 C   0  0  0  0  0  0  0  0  0  0  0  0
    5.2784    5.0657    0.0000 O   0  0  0  0  0  0  0  0  0  0  0  0
    2.5902    4.6923    0.0000 C   0  0  0  0  0  0  0  0  0  0  0  0
    3.5540    1.5221    0.0000 N   0  0  0  0  0  0  0  0  0  0  0  0
    1.4392    3.6949    0.0000 O   0  0  0  0  0  0  0  0  0  0  0  0
    0.0000    4.1930    0.0000 R#  0  0  0  0  0  0  0  0  0  0  0  0
    3.6047    0.0000    0.0000 R#  0  0  0  0  0  0  0  0  0  0  0  0
    7.9504    4.5903    0.0000 R#  0  0  0  0  0  0  0  0  0  0  0  0
    6.8668    1.4591    0.0000 F   0  0  0  0  0  0  0  0  0  0  0  0
  1  2  1  0  0  0  0
  2  3  1  0  0  0  0
  3  4  1  0  0  0  0
  4  5  1  0  0  0  0
  5  1  1  0  0  0  0
  1  6  1  1  0  0  0
  2  7  1  6  0  0  0
  6  8  1  0  0  0  0
  8  9  1  0  0  0  0
  7 10  1  0  0  0  0
  4 11  1  1  0  0  0
  3 12  1  6  0  0  0
A    9
R1
A   10
R2
A   11
R3
M  END

>  <symbol>
n3fl2r

>  <m_abbr>
n3fl2r

>  <m_type>
rna

>  <m_subtype>
natural

>  <m_RgroupIdx>
8,9,10

>  <m_Rgroups>
H,H,OH

$$$$

MolEngine07221613482D

 13 13  0  0  0  0            999 V2000
    4.0295    4.1942    0.0000 C   0  0  0  0  0  0  0  0  0  0  0  0
    4.4724    2.7370    0.0000 C   0  0  0  0  0  0  0  0  0  0  0  0
    5.9952    2.7080    0.0000 C   0  0  0  0  0  0  0  0  0  0  0  0
    6.4933    4.1473    0.0000 C   0  0  0  0  0  0  0  0  0  0  0  0
    5.2784    5.0657    0.0000 O   0  0  0  0  0  0  0  0  0  0  0  0
    2.5902    4.6923    0.0000 C   0  0  0  0  0  0  0  0  0  0  0  0
    3.5540    1.5221    0.0000 N   0  0  0  0  0  0  0  0  0  0  0  0
    1.4392    3.6949    0.0000 O   0  0  0  0  0  0  0  0  0  0  0  0
    0.0000    4.1930    0.0000 R#  0  0  0  0  0  0  0  0  0  0  0  0
    3.6047    0.0000    0.0000 R#  0  0  0  0  0  0  0  0  0  0  0  0
    7.9504    4.5903    0.0000 R#  0  0  0  0  0  0  0  0  0  0  0  0
    6.8668    1.4591    0.0000 O   0  0  0  0  0  0  0  0  0  0  0  0
    8.3379    1.0649    0.0000 C   0  0  0  0  0  0  0  0  0  0  0  0
  1  2  1  0  0  0  0
  2  3  1  0  0  0  0
  3  4  1  0  0  0  0
  4  5  1  0  0  0  0
  5  1  1  0  0  0  0
  1  6  1  1  0  0  0
  2  7  1  6  0  0  0
  6  8  1  0  0  0  0
  8  9  1  0  0  0  0
  7 10  1  0  0  0  0
  4 11  1  1  0  0  0
  3 12  1  6  0  0  0
 12 13  1  0  0  0  0
A    9
R1
A   10
R2
A   11
R3
M  END

>  <symbol>
n3m

>  <m_abbr>
n3m

>  <m_type>
rna

>  <m_subtype>
natural

>  <m_RgroupIdx>
8,9,10

>  <m_Rgroups>
H,H,OH

$$$$

MolEngine07221613482D

 13 13  0  0  0  0            999 V2000
    4.0295    4.1942    0.0000 C   0  0  0  0  0  0  0  0  0  0  0  0
    4.4724    2.7370    0.0000 C   0  0  0  0  0  0  0  0  0  0  0  0
    5.9952    2.7080    0.0000 C   0  0  0  0  0  0  0  0  0  0  0  0
    6.4933    4.1473    0.0000 C   0  0  0  0  0  0  0  0  0  0  0  0
    5.2784    5.0657    0.0000 O   0  0  0  0  0  0  0  0  0  0  0  0
    2.5902    4.6923    0.0000 C   0  0  0  0  0  0  0  0  0  0  0  0
    3.5540    1.5221    0.0000 O   0  0  0  0  0  0  0  0  0  0  0  0
    1.4392    3.6949    0.0000 N   0  0  0  0  0  0  0  0  0  0  0  0
    0.0000    4.1930    0.0000 R#  0  0  0  0  0  0  0  0  0  0  0  0
    3.6047    0.0000    0.0000 R#  0  0  0  0  0  0  0  0  0  0  0  0
    7.9504    4.5903    0.0000 R#  0  0  0  0  0  0  0  0  0  0  0  0
    6.8668    1.4591    0.0000 O   0  0  0  0  0  0  0  0  0  0  0  0
    8.3379    1.0649    0.0000 C   0  0  0  0  0  0  0  0  0  0  0  0
  1  2  1  0  0  0  0
  2  3  1  0  0  0  0
  3  4  1  0  0  0  0
  4  5  1  0  0  0  0
  5  1  1  0  0  0  0
  1  6  1  1  0  0  0
  2  7  1  6  0  0  0
  6  8  1  0  0  0  0
  8  9  1  0  0  0  0
  7 10  1  0  0  0  0
  4 11  1  1  0  0  0
  3 12  1  6  0  0  0
 12 13  1  0  0  0  0
A    9
R1
A   10
R2
A   11
R3
M  END

>  <symbol>
n5m

>  <m_abbr>
n5m

>  <m_type>
rna

>  <m_subtype>
natural

>  <m_RgroupIdx>
8,9,10

>  <m_Rgroups>
H,H,OH

$$$$

MolEngine07221613482D

 12 12  0  0  0  0            999 V2000
    4.0295    4.1942    0.0000 C   0  0  0  0  0  0  0  0  0  0  0  0
    4.4725    2.7370    0.0000 C   0  0  0  0  0  0  0  0  0  0  0  0
    5.9952    2.7080    0.0000 C   0  0  0  0  0  0  0  0  0  0  0  0
    6.4933    4.1473    0.0000 C   0  0  0  0  0  0  0  0  0  0  0  0
    5.2785    5.0657    0.0000 O   0  0  0  0  0  0  0  0  0  0  0  0
    2.5903    4.6923    0.0000 C   0  0  0  0  0  0  0  0  0  0  0  0
    3.5540    1.5221    0.0000 O   0  0  0  0  0  0  0  0  0  0  0  0
    1.4393    3.6949    0.0000 N   0  0  0  0  0  0  0  0  0  0  0  0
    0.0000    4.1930    0.0000 R#  0  0  0  0  0  0  0  0  0  0  0  0
    3.6048    0.0000    0.0000 R#  0  0  0  0  0  0  0  0  0  0  0  0
    7.9505    4.5903    0.0000 R#  0  0  0  0  0  0  0  0  0  0  0  0
    6.8668    1.4591    0.0000 O   0  0  0  0  0  0  0  0  0  0  0  0
  1  2  1  0  0  0  0
  2  3  1  0  0  0  0
  3  4  1  0  0  0  0
  4  5  1  0  0  0  0
  5  1  1  0  0  0  0
  1  6  1  1  0  0  0
  2  7  1  6  0  0  0
  6  8  1  0  0  0  0
  8  9  1  0  0  0  0
  7 10  1  0  0  0  0
  4 11  1  1  0  0  0
  3 12  1  6  0  0  0
A    9
R1
A   10
R2
A   11
R3
M  END

>  <symbol>
n5r

>  <m_abbr>
n5r

>  <m_type>
rna

>  <m_subtype>
natural

>  <m_RgroupIdx>
8,9,10

>  <m_Rgroups>
H,H,OH

$$$$

MolEngine07221613482D

 12 12  0  0  0  0            999 V2000
    4.0295    4.1942    0.0000 C   0  0  0  0  0  0  0  0  0  0  0  0
    4.4724    2.7370    0.0000 C   0  0  0  0  0  0  0  0  0  0  0  0
    5.9952    2.7080    0.0000 C   0  0  0  0  0  0  0  0  0  0  0  0
    6.4933    4.1473    0.0000 C   0  0  0  0  0  0  0  0  0  0  0  0
    5.2784    5.0657    0.0000 O   0  0  0  0  0  0  0  0  0  0  0  0
    2.5902    4.6923    0.0000 C   0  0  0  0  0  0  0  0  0  0  0  0
    3.5540    1.5221    0.0000 O   0  0  0  0  0  0  0  0  0  0  0  0
    1.4392    3.6949    0.0000 N   0  0  0  0  0  0  0  0  0  0  0  0
    0.0000    4.1930    0.0000 R#  0  0  0  0  0  0  0  0  0  0  0  0
    3.6047    0.0000    0.0000 R#  0  0  0  0  0  0  0  0  0  0  0  0
    7.9504    4.5903    0.0000 R#  0  0  0  0  0  0  0  0  0  0  0  0
    6.8668    1.4591    0.0000 F   0  0  0  0  0  0  0  0  0  0  0  0
  1  2  1  0  0  0  0
  2  3  1  0  0  0  0
  3  4  1  0  0  0  0
  4  5  1  0  0  0  0
  5  1  1  0  0  0  0
  1  6  1  1  0  0  0
  2  7  1  6  0  0  0
  6  8  1  0  0  0  0
  8  9  1  0  0  0  0
  7 10  1  0  0  0  0
  4 11  1  1  0  0  0
  3 12  1  6  0  0  0
A    9
R1
A   10
R2
A   11
R3
M  END

>  <symbol>
n5fl2r

>  <m_abbr>
n5fl2r

>  <m_type>
rna

>  <m_subtype>
natural

>  <m_RgroupIdx>
8,9,10

>  <m_Rgroups>
H,H,OH

$$$$

MolEngine07221613482D

 22 22  0  0  0  0            999 V2000
    3.9168    9.3673    0.0000 C   0  0  0  0  0  0  0  0  0  0  0  0
    4.2872    7.8900    0.0000 C   0  0  0  0  0  0  0  0  0  0  0  0
    5.8256    7.8766    0.0000 C   0  0  0  0  0  0  0  0  0  0  0  0
    6.3716    9.3125    0.0000 C   0  0  0  0  0  0  0  0  0  0  0  0
    5.2104   10.3045    0.0000 O   0  0  0  0  0  0  0  0  0  0  0  0
    3.3407    6.6968    0.0000 O   0  0  0  0  0  0  0  0  0  0  0  0
    2.4856    9.8881    0.0000 C   0  0  0  0  0  0  0  0  0  0  0  0
    7.8526    9.7062    0.0000 R#  0  0  0  0  0  0  0  0  0  0  0  0
    1.3190    8.9092    0.0000 O   0  0  0  0  0  0  0  0  0  0  0  0
    0.0000    9.6707    0.0000 R#  0  0  0  0  0  0  0  0  0  0  0  0
    3.3407    5.1738    0.0000 R#  0  0  0  0  0  0  0  0  0  0  0  0
    6.6397    6.5902    0.0000 O   0  0  0  0  0  0  0  0  0  0  0  0
    8.9242    5.2712    0.0000 C   0  0  0  0  0  0  0  0  0  0  0  0
    8.1627    6.5902    0.0000 C   0  0  0  0  0  0  0  0  0  0  0  0
   10.4419    5.2712    0.0000 O   0  0  0  0  0  0  0  0  0  0  0  0
   11.2008    3.9568    0.0000 C   0  0  0  0  0  0  0  0  0  0  0  0
   12.7238    3.9568    0.0000 C   0  0  0  0  0  0  0  0  0  0  0  0
   13.4853    2.6379    0.0000 O   0  0  0  0  0  0  0  0  0  0  0  0
   15.0083    2.6379    0.0000 C   0  0  0  0  0  0  0  0  0  0  0  0
   15.7698    1.3189    0.0000 C   0  0  0  0  0  0  0  0  0  0  0  0
   17.2928    1.3189    0.0000 O   0  0  0  0  0  0  0  0  0  0  0  0
   18.0543    0.0000    0.0000 C   0  0  0  0  0  0  0  0  0  0  0  0
  1  2  1  0  0  0  0
  2  3  1  0  0  0  0
  3  4  1  0  0  0  0
  4  5  1  0  0  0  0
  5  1  1  0  0  0  0
  2  6  1  6  0  0  0
  3 12  1  6  0  0  0
  1  7  1  1  0  0  0
  4  8  1  1  0  0  0
  7  9  1  0  0  0  0
  9 10  1  0  0  0  0
  6 11  1  0  0  0  0
 13 14  1  0  0  0  0
 12 14  1  0  0  0  0
 15 16  1  0  0  0  0
 13 15  1  0  0  0  0
 16 17  1  0  0  0  0
 17 18  1  0  0  0  0
 18 19  1  0  0  0  0
 19 20  1  0  0  0  0
 20 21  1  0  0  0  0
 21 22  1  0  0  0  0
A    8
R3
A   10
R1
A   11
R2
M  END

>  <symbol>
trimoe

>  <m_abbr>
trimoe

>  <m_type>
rna

>  <m_subtype>
natural

>  <m_RgroupIdx>
9,10,7

>  <m_Rgroups>
H,H,OH

$$$$

MolEngine07221613482D

  5  4  0  0  0  0            999 V2000
    0.0000    1.5160    0.0000 R#  0  0  0  0  0  0  0  0  0  0  0  0
    1.5230    1.5229    0.0000 P   0  0  0  0  0  0  0  0  0  0  0  0
    1.5160    3.0459    0.0000 O   0  0  0  0  0  0  0  0  0  0  0  0
    1.5299    0.0000    0.0000 O   0  0  0  0  0  0  0  0  0  0  0  0
    3.0460    1.5299    0.0000 R#  0  0  0  0  0  0  0  0  0  0  0  0
  1  2  1  0  0  0  0
  2  3  2  0  0  0  0
  2  4  1  0  0  0  0
  2  5  1  0  0  0  0
A    1
R1
A    5
R2
M  END

>  <symbol>
p

>  <m_abbr>
p

>  <m_type>
rna

>  <m_subtype>
natural

>  <m_RgroupIdx>
0,4

>  <m_Rgroups>
OH,OH

$$$$

MolEngine07221613482D

  5  4  0  0  0  0            999 V2000
    1.5177    1.5176    0.0000 P   0  0  0  0  0  0  0  0  0  0  0  0
    0.0000    1.5294    0.0000 R#  0  0  0  0  0  0  0  0  0  0  0  0
    1.5294    3.0353    0.0000 O   0  0  0  0  0  0  0  0  0  0  0  0
    3.0353    1.5059    0.0000 R#  0  0  0  0  0  0  0  0  0  0  0  0
    1.5059    0.0000    0.0000 B   0  0  0  0  0  0  0  0  0  0  0  0
  1  2  1  0  0  0  0
  1  3  2  0  0  0  0
  1  4  1  0  0  0  0
  1  5  1  0  0  0  0
A    2
R1
A    4
R2
M  END

>  <symbol>
bp

>  <m_abbr>
bp

>  <m_type>
rna

>  <m_subtype>
natural

>  <m_RgroupIdx>
1,3

>  <m_Rgroups>
OH,OH

$$$$

MolEngine07221613482D

  5  4  0  0  0  0            999 V2000
    1.4193    1.4194    0.0000 P   0  0  0  0  0  0  0  0  0  0  0  0
    0.0000    1.4524    0.0000 R#  0  0  0  0  0  0  0  0  0  0  0  0
    1.4523    2.8387    0.0000 O   0  0  0  0  0  0  0  0  0  0  0  0
    2.8387    1.3864    0.0000 R#  0  0  0  0  0  0  0  0  0  0  0  0
    1.3864    0.0000    0.0000 S   0  0  0  0  0  0  0  0  0  0  0  0
  1  2  1  0  0  0  0
  1  3  2  0  0  0  0
  1  4  1  0  0  0  0
  1  5  1  0  0  0  0
A    2
R1
A    4
R2
M  END

>  <symbol>
sp

>  <m_abbr>
sp

>  <m_type>
rna

>  <m_subtype>
natural

>  <m_RgroupIdx>
1,3

>  <m_Rgroups>
OH,OH

$$$$

MolEngine07221613482D

  5  4  0  0  0  0            999 V2000
    0.0000    1.5263    0.0000 R#  0  0  0  0  0  0  0  0  0  0  0  0
    1.5229    1.5230    0.0000 P   0  0  0  0  0  0  0  0  0  0  0  0
    1.5196    0.0000    0.0000 C   0  0  0  0  0  0  0  0  0  0  0  0
    1.5263    3.0460    0.0000 O   0  0  0  0  0  0  0  0  0  0  0  0
    3.0460    1.5196    0.0000 R#  0  0  0  0  0  0  0  0  0  0  0  0
  2  3  1  0  0  0  0
  2  4  2  0  0  0  0
  2  1  1  0  0  0  0
  2  5  1  0  0  0  0
A    1
R1
A    5
R2
M  END

>  <symbol>
mp

>  <m_abbr>
mp

>  <m_type>
rna

>  <m_subtype>
natural

>  <m_RgroupIdx>
0,4

>  <m_Rgroups>
OH,OH

$$$$

MolEngine07221613482D

  5  4  0  0  0  0            999 V2000
    1.5742    1.5231    0.0000 P   0  0  0  0  0  0  0  0  0  0  0  0
    3.0461    1.5231    0.0000 R#  0  0  0  0  0  0  0  0  0  0  0  0
    1.5742    0.0000    0.0000 C   0  0  0  0  0  0  0  0  0  0  0  0
    1.5840    2.9950    0.0000 O   0  0  0  0  0  0  0  0  0  0  0  0
    0.0000    1.5231    0.0000 R#  0  0  0  0  0  0  0  0  0  0  0  0
  1  5  1  0  0  0  0
  1  4  2  0  0  0  0
  1  2  1  6  0  0  0
  1  3  1  1  0  0  0
A    2
R2
A    5
R1
M  END

>  <symbol>
Rmp

>  <m_abbr>
Rmp

>  <m_type>
rna

>  <m_subtype>
natural

>  <m_RgroupIdx>
4,1

>  <m_Rgroups>
OH,OH

$$$$

MolEngine07221613482D

  8  7  0  0  0  0            999 V2000
    3.8075    3.0460    0.0000 R#  0  0  0  0  0  0  0  0  0  0  0  0
    3.8075    1.5230    0.0000 P   0  0  0  0  0  0  0  0  0  0  0  0
    2.2845    1.5230    0.0000 C   0  0  0  0  0  0  0  0  0  0  0  0
    5.3305    1.5230    0.0000 O   0  0  0  0  0  0  0  0  0  0  0  0
    3.8075    0.0000    0.0000 R#  0  0  0  0  0  0  0  0  0  0  0  0
    1.5230    2.8419    0.0000 C   0  0  0  0  0  0  0  0  0  0  0  0
    0.0000    2.8419    0.0000 O   0  0  0  0  0  0  0  0  0  0  0  0
    2.2845    4.1609    0.0000 O   0  0  0  0  0  0  0  0  0  0  0  0
  2  3  1  0  0  0  0
  2  4  2  0  0  0  0
  2  1  1  0  0  0  0
  2  5  1  0  0  0  0
  6  3  1  0  0  0  0
  6  8  2  0  0  0  0
  6  7  1  0  0  0  0
A    1
R1
A    5
R2
M  END

>  <symbol>
cmp

>  <m_abbr>
cmp

>  <m_type>
rna

>  <m_subtype>
natural

>  <m_RgroupIdx>
0,4

>  <m_Rgroups>
OH,OH

$$$$

MolEngine07221613482D

  5  4  0  0  0  0            999 V2000
    0.0000    1.3190    0.0000 R#  0  0  0  0  0  0  0  0  0  0  0  0
    1.5230    1.3190    0.0000 C   0  0  0  0  0  0  0  0  0  0  0  0
    2.2845    0.0000    0.0000 R#  0  0  0  0  0  0  0  0  0  0  0  0
    1.9172    2.7901    0.0000 F   0  0  0  0  0  0  0  0  0  0  0  0
    3.0330    1.5178    0.0000 F   0  0  0  0  0  0  0  0  0  0  0  0
  1  2  1  0  0  0  0
  2  3  1  0  0  0  0
  2  4  1  0  0  0  0
  2  5  1  0  0  0  0
A    1
R1
A    3
R2
M  END

>  <symbol>
fl2me

>  <m_abbr>
fl2me

>  <m_type>
rna

>  <m_subtype>
natural

>  <m_RgroupIdx>
0,2

>  <m_Rgroups>
OH,OH

$$$$

MolEngine07221613482D

  3  2  0  0  0  0            999 V2000
    0.0000    1.3190    0.0000 R#  0  0  0  0  0  0  0  0  0  0  0  0
    1.5230    1.3190    0.0000 O   0  0  0  0  0  0  0  0  0  0  0  0
    2.2845    0.0000    0.0000 R#  0  0  0  0  0  0  0  0  0  0  0  0
  1  2  1  0  0  0  0
  2  3  1  0  0  0  0
A    1
R1
A    3
R2
M  END

>  <symbol>
oxy

>  <m_abbr>
oxy

>  <m_type>
rna

>  <m_subtype>
natural

>  <m_RgroupIdx>
0,2

>  <m_Rgroups>
OH,OH

$$$$

MolEngine07221613482D

  4  3  0  0  0  0            999 V2000
    1.3143    2.2832    0.0000 R#  0  0  0  0  0  0  0  0  0  0  0  0
    1.3143    0.7610    0.0000 N   0  0  0  0  0  0  0  0  0  0  0  0
    2.6335    0.0000    0.0000 R#  0  0  0  0  0  0  0  0  0  0  0  0
    0.0000    0.0020    0.0000 C   0  0  0  0  0  0  0  0  0  0  0  0
  1  2  1  0  0  0  0
  2  3  1  0  0  0  0
  2  4  1  0  0  0  0
A    1
R1
A    3
R2
M  END

>  <symbol>
mn

>  <m_abbr>
mn

>  <m_type>
rna

>  <m_subtype>
natural

>  <m_RgroupIdx>
0,2

>  <m_Rgroups>
H,H

$$$$

MolEngine07221613482D

  5  4  0  0  0  0            999 V2000
    1.3142    3.8042    0.0000 R#  0  0  0  0  0  0  0  0  0  0  0  0
    1.3142    2.2820    0.0000 N   0  0  0  0  0  0  0  0  0  0  0  0
    2.6334    1.5209    0.0000 R#  0  0  0  0  0  0  0  0  0  0  0  0
    0.0000    1.5230    0.0000 C   0  0  0  0  0  0  0  0  0  0  0  0
    0.0002    0.0000    0.0000 C   0  0  0  0  0  0  0  0  0  0  0  0
  1  2  1  0  0  0  0
  2  3  1  0  0  0  0
  2  4  1  0  0  0  0
  4  5  1  0  0  0  0
A    1
R1
A    3
R2
M  END

>  <symbol>
en

>  <m_abbr>
en

>  <m_type>
rna

>  <m_subtype>
natural

>  <m_RgroupIdx>
0,2

>  <m_Rgroups>
H,H

$$$$

MolEngine07221613482D

  6  5  0  0  0  0            999 V2000
    2.6330    4.5657    0.0000 R#  0  0  0  0  0  0  0  0  0  0  0  0
    2.6330    3.0435    0.0000 N   0  0  0  0  0  0  0  0  0  0  0  0
    3.9522    2.2824    0.0000 R#  0  0  0  0  0  0  0  0  0  0  0  0
    1.3188    2.2845    0.0000 C   0  0  0  0  0  0  0  0  0  0  0  0
    1.3190    0.7615    0.0000 C   0  0  0  0  0  0  0  0  0  0  0  0
    0.0000    0.0000    0.0000 C   0  0  0  0  0  0  0  0  0  0  0  0
  1  2  1  0  0  0  0
  2  3  1  0  0  0  0
  2  4  1  0  0  0  0
  4  5  1  0  0  0  0
  5  6  1  0  0  0  0
A    1
R1
A    3
R2
M  END

>  <symbol>
prn

>  <m_abbr>
prn

>  <m_type>
rna

>  <m_subtype>
natural

>  <m_RgroupIdx>
0,2

>  <m_Rgroups>
H,H

$$$$

MolEngine07221613482D

  7  6  0  0  0  0            999 V2000
    2.6330    6.0887    0.0000 R#  0  0  0  0  0  0  0  0  0  0  0  0
    2.6330    4.5665    0.0000 N   0  0  0  0  0  0  0  0  0  0  0  0
    3.9522    3.8054    0.0000 R#  0  0  0  0  0  0  0  0  0  0  0  0
    1.3188    3.8075    0.0000 C   0  0  0  0  0  0  0  0  0  0  0  0
    1.3190    2.2845    0.0000 C   0  0  0  0  0  0  0  0  0  0  0  0
    0.0000    1.5230    0.0000 O   0  0  0  0  0  0  0  0  0  0  0  0
    0.0000    0.0000    0.0000 C   0  0  0  0  0  0  0  0  0  0  0  0
  1  2  1  0  0  0  0
  2  3  1  0  0  0  0
  2  4  1  0  0  0  0
  4  5  1  0  0  0  0
  5  6  1  0  0  0  0
  6  7  1  0  0  0  0
A    1
R1
A    3
R2
M  END

>  <symbol>
moen

>  <m_abbr>
moen

>  <m_type>
rna

>  <m_subtype>
natural

>  <m_RgroupIdx>
0,2

>  <m_Rgroups>
H,H

$$$$

MolEngine07221613482D

  8  7  0  0  0  0            999 V2000
    3.9519    6.0887    0.0000 R#  0  0  0  0  0  0  0  0  0  0  0  0
    3.9519    4.5665    0.0000 N   0  0  0  0  0  0  0  0  0  0  0  0
    5.2711    3.8054    0.0000 R#  0  0  0  0  0  0  0  0  0  0  0  0
    2.6377    3.8075    0.0000 C   0  0  0  0  0  0  0  0  0  0  0  0
    2.6379    2.2845    0.0000 C   0  0  0  0  0  0  0  0  0  0  0  0
    1.3189    1.5230    0.0000 N   0  0  0  0  0  0  0  0  0  0  0  0
    1.3189    0.0000    0.0000 C   0  0  0  0  0  0  0  0  0  0  0  0
    0.0000    2.2845    0.0000 C   0  0  0  0  0  0  0  0  0  0  0  0
  1  2  1  0  0  0  0
  2  3  1  0  0  0  0
  2  4  1  0  0  0  0
  4  5  1  0  0  0  0
  5  6  1  0  0  0  0
  6  7  1  0  0  0  0
  6  8  1  0  0  0  0
A    1
R1
A    3
R2
M  END

>  <symbol>
m2nen

>  <m_abbr>
m2nen

>  <m_type>
rna

>  <m_subtype>
natural

>  <m_RgroupIdx>
0,2

>  <m_Rgroups>
H,H

$$$$

MolEngine07221613482D

  6  5  0  0  0  0            999 V2000
    2.6330    4.5657    0.0000 R#  0  0  0  0  0  0  0  0  0  0  0  0
    2.6330    3.0435    0.0000 N   0  0  0  0  0  0  0  0  0  0  0  0
    3.9522    2.2824    0.0000 R#  0  0  0  0  0  0  0  0  0  0  0  0
    1.3188    2.2845    0.0000 C   0  0  0  0  0  0  0  0  0  0  0  0
    1.3190    0.7615    0.0000 C   0  0  0  0  0  0  0  0  0  0  0  0
    0.0000    0.0000    0.0000 N   0  0  0  0  0  0  0  0  0  0  0  0
  1  2  1  0  0  0  0
  2  3  1  0  0  0  0
  2  4  1  0  0  0  0
  4  5  1  0  0  0  0
  5  6  1  0  0  0  0
A    1
R1
A    3
R2
M  END

>  <symbol>
nen

>  <m_abbr>
nen

>  <m_type>
rna

>  <m_subtype>
natural

>  <m_RgroupIdx>
0,2

>  <m_Rgroups>
H,H

$$$$

MolEngine07221613482D

  7  6  0  0  0  0            999 V2000
    2.6330    4.5657    0.0000 R#  0  0  0  0  0  0  0  0  0  0  0  0
    2.6330    3.0435    0.0000 N   0  0  0  0  0  0  0  0  0  0  0  0
    3.9522    2.2824    0.0000 R#  0  0  0  0  0  0  0  0  0  0  0  0
    1.3188    2.2845    0.0000 C   0  0  0  0  0  0  0  0  0  0  0  0
    1.3190    0.7615    0.0000 C   0  0  0  0  0  0  0  0  0  0  0  0
    0.0000    0.0000    0.0000 C   0  0  0  0  0  0  0  0  0  0  0  0
    2.6380    0.0001    0.0000 C   0  0  0  0  0  0  0  0  0  0  0  0
  1  2  1  0  0  0  0
  2  3  1  0  0  0  0
  2  4  1  0  0  0  0
  4  5  1  0  0  0  0
  5  6  1  0  0  0  0
  5  7  1  0  0  0  0
A    1
R1
A    3
R2
M  END

>  <symbol>
ibun

>  <m_abbr>
ibun

>  <m_type>
rna

>  <m_subtype>
natural

>  <m_RgroupIdx>
0,2

>  <m_Rgroups>
H,H

$$$$

MolEngine07221613482D

 10 10  0  0  0  0            999 V2000
    2.6330    6.8502    0.0000 R#  0  0  0  0  0  0  0  0  0  0  0  0
    2.6330    5.3280    0.0000 N   0  0  0  0  0  0  0  0  0  0  0  0
    3.9522    4.5669    0.0000 R#  0  0  0  0  0  0  0  0  0  0  0  0
    1.3188    4.5690    0.0000 C   0  0  0  0  0  0  0  0  0  0  0  0
    1.3190    3.0460    0.0000 C   0  0  0  0  0  0  0  0  0  0  0  0
    0.0000    2.2845    0.0000 C   0  0  0  0  0  0  0  0  0  0  0  0
    2.6380    2.2846    0.0000 C   0  0  0  0  0  0  0  0  0  0  0  0
    0.0000    0.7615    0.0000 C   0  0  0  0  0  0  0  0  0  0  0  0
    1.3190    0.0000    0.0000 C   0  0  0  0  0  0  0  0  0  0  0  0
    2.6380    0.7615    0.0000 C   0  0  0  0  0  0  0  0  0  0  0  0
  1  2  1  0  0  0  0
  2  3  1  0  0  0  0
  2  4  1  0  0  0  0
  4  5  1  0  0  0  0
  5  6  2  0  0  0  0
  5  7  1  0  0  0  0
  6  8  1  0  0  0  0
  8  9  2  0  0  0  0
  9 10  1  0  0  0  0
 10  7  2  0  0  0  0
A    1
R1
A    3
R2
M  END

>  <symbol>
bnn

>  <m_abbr>
bnn

>  <m_type>
rna

>  <m_subtype>
natural

>  <m_RgroupIdx>
0,2

>  <m_Rgroups>
H,H

$$$$

MolEngine07221613482D

  6  5  0  0  0  0            999 V2000
    1.5230    3.0460    0.0000 C   0  0  0  0  0  0  0  0  0  0  0  0
    1.5230    1.5230    0.0000 P   0  0  0  0  0  0  0  0  0  0  0  0
    0.0000    1.5230    0.0000 O   0  0  0  0  0  0  0  0  0  0  0  0
    3.0460    1.5230    0.0000 O   0  0  0  0  0  0  0  0  0  0  0  0
    2.8420    3.8075    0.0000 R#  0  0  0  0  0  0  0  0  0  0  0  0
    1.5230    0.0000    0.0000 R#  0  0  0  0  0  0  0  0  0  0  0  0
  1  2  1  0  0  0  0
  2  3  2  0  0  0  0
  2  4  1  0  0  0  0
  1  5  1  0  0  0  0
  2  6  1  0  0  0  0
A    5
R1
A    6
R2
M  END

>  <symbol>
mepo2

>  <m_abbr>
mepo2

>  <m_type>
rna

>  <m_subtype>
natural

>  <m_RgroupIdx>
4,5

>  <m_Rgroups>
OH,OH

$$$$
Amino acid/PNA 2nd half
MolEngine07221613482D

  3  2  0  0  0  0            999 V2000
    0.0000    0.0000    0.0000 R#  0  0  0  0  0  0  0  0  0  0  0  0
    1.3000    0.7500    0.0000 N   0  0  0  0  0  0  0  0  0  0  0  0
    2.7500    0.3625    0.0000 R#  0  0  0  0  0  0  0  0  0  0  0  0
  1  2  1  0  0  0  0
  2  3  1  0  0  0  0
A    1
R1
A    3
R2
M  END

>  <symbol>
hn

>  <m_abbr>
hn

>  <m_type>
rna

>  <m_subtype>
natural

>  <m_RgroupIdx>
0,2

>  <m_Rgroups>
H,H

$$$$

MolEngine07221613482D

  7  6  0  0  0  0            999 V2000
    1.5097    3.8012    0.0000 O   0  0  0  0  0  0  0  0  0  0  0  0
    1.5177    2.2835    0.0000 P   0  0  0  0  0  0  0  0  0  0  0  0
    1.5257    0.7658    0.0000 N   0  0  0  0  0  0  0  0  0  0  0  0
    0.2153    0.0000    0.0000 C   0  0  0  0  0  0  0  0  0  0  0  0
    2.8440    0.0139    0.0000 C   0  0  0  0  0  0  0  0  0  0  0  0
    0.0000    2.2755    0.0000 R#  0  0  0  0  0  0  0  0  0  0  0  0
    3.0354    2.2915    0.0000 R#  0  0  0  0  0  0  0  0  0  0  0  0
  1  2  2  0  0  0  0
  2  3  1  0  0  0  0
  3  4  1  0  0  0  0
  3  5  1  0  0  0  0
  2  6  1  0  0  0  0
  2  7  1  0  0  0  0
A    6
R1
A    7
R2
M  END

>  <symbol>
m2np

>  <m_abbr>
m2np

>  <m_type>
rna

>  <m_subtype>
natural

>  <m_RgroupIdx>
5,6

>  <m_Rgroups>
NH2,OH

$$$$

MolEngine07221613482D

 10  9  0  0  0  0            999 V2000
    1.5177    3.0354    0.0000 R#  0  0  0  0  0  0  0  0  0  0  0  0
    1.5177    1.5177    0.0000 P   0  0  0  0  0  0  0  0  0  0  0  0
    0.0000    1.5177    0.0000 S   0  0  0  0  0  0  0  0  0  0  0  0
    3.0354    1.5177    0.0000 C   0  0  0  0  0  0  0  0  0  0  0  0
    1.5177    0.0000    0.0000 R#  0  0  0  0  0  0  0  0  0  0  0  0
    4.1305    2.5762    0.0000 C   0  0  0  0  0  0  0  0  0  0  0  0
    3.4046    0.0401    0.0000 O   0  0  0  0  0  0  0  0  0  0  0  0
    3.7613    4.0538    0.0000 Cl  0  0  0  0  0  0  0  0  0  0  0  0
    5.5947    2.1571    0.0000 Cl  0  0  0  0  0  0  0  0  0  0  0  0
    5.2255    3.6347    0.0000 Cl  0  0  0  0  0  0  0  0  0  0  0  0
  1  2  1  0  0  0  0
  2  3  2  0  0  0  0
  2  4  1  0  0  0  0
  2  5  1  0  0  0  0
  4  6  1  0  0  0  0
  4  7  1  0  0  0  0
  6  8  1  0  0  0  0
  6  9  1  0  0  0  0
  6 10  1  0  0  0  0
A    1
R1
A    5
R2
M  END

>  <symbol>
cl3ohesp

>  <m_abbr>
cl3ohesp

>  <m_type>
rna

>  <m_subtype>
natural

>  <m_RgroupIdx>
0,4

>  <m_Rgroups>
OH,OH

$$$$

MolEngine07221613482D

  4  3  0  0  0  0            999 V2000
    0.0000    1.3189    0.0000 R#  0  0  0  0  0  0  0  0  0  0  0  0
    1.5230    1.3189    0.0000 C   0  0  0  0  0  0  0  0  0  0  0  0
    2.2845    0.0000    0.0000 R#  0  0  0  0  0  0  0  0  0  0  0  0
    2.2845    2.6379    0.0000 F   0  0  0  0  0  0  0  0  0  0  0  0
  1  2  1  0  0  0  0
  2  3  1  0  0  0  0
  2  4  1  0  0  0  0
A    1
R1
A    3
R2
M  END

>  <symbol>
flme

>  <m_abbr>
flme

>  <m_type>
rna

>  <m_subtype>
natural

>  <m_RgroupIdx>
0,2

>  <m_Rgroups>
OH,OH

$$$$

MolEngine07221613482D

  5  4  0  0  0  0            999 V2000
    0.0000    1.5263    0.0000 R#  0  0  0  0  0  0  0  0  0  0  0  0
    1.5230    1.5230    0.0000 P   0  0  0  0  0  0  0  0  0  0  0  0
    1.5196    0.0000    0.0000 C   0  0  0  0  0  0  0  0  0  0  0  0
    1.5263    3.0460    0.0000 S   0  0  0  0  0  0  0  0  0  0  0  0
    3.0460    1.5196    0.0000 R#  0  0  0  0  0  0  0  0  0  0  0  0
  2  3  1  0  0  0  0
  2  4  2  0  0  0  0
  2  1  1  0  0  0  0
  2  5  1  0  0  0  0
A    1
R1
A    5
R2
M  END

>  <symbol>
msp

>  <m_abbr>
msp

>  <m_type>
rna

>  <m_subtype>
natural

>  <m_RgroupIdx>
0,4

>  <m_Rgroups>
OH,OH

$$$$

MolEngine07221613482D

  5  4  0  0  0  0            999 V2000
    1.5230    1.5230    0.0000 P   0  0  0  0  0  0  0  0  0  0  0  0
    0.0000    1.5230    0.0000 R#  0  0  0  0  0  0  0  0  0  0  0  0
    3.0460    1.5230    0.0000 R#  0  0  0  0  0  0  0  0  0  0  0  0
    1.5230    0.0000    0.0000 S   0  0  0  0  0  0  0  0  0  0  0  0
    1.5230    3.0460    0.0000 S   0  0  0  0  0  0  0  0  0  0  0  0
  1  2  1  0  0  0  0
  1  5  2  0  0  0  0
  1  3  1  0  0  0  0
  1  4  1  0  0  0  0
A    2
R1
A    3
R2
M  END

>  <symbol>
s2p

>  <m_abbr>
s2p

>  <m_type>
rna

>  <m_subtype>
natural

>  <m_RgroupIdx>
1,2

>  <m_Rgroups>
OH,OH

$$$$

MolEngine07221613482D

  5  4  0  0  0  0            999 V2000
    1.5759    1.5758    0.0000 P   0  0  0  0  0  0  0  0  0  0  0  0
    3.0989    1.5758    0.0000 R#  0  0  0  0  0  0  0  0  0  0  0  0
    1.5759    0.0000    0.0000 S   0  0  0  0  0  0  0  0  0  0  0  0
    1.5860    3.0988    0.0000 O   0  0  0  0  0  0  0  0  0  0  0  0
    0.0000    1.5758    0.0000 R#  0  0  0  0  0  0  0  0  0  0  0  0
  1  5  1  0  0  0  0
  1  4  2  0  0  0  0
  1  2  1  1  0  0  0
  1  3  1  6  0  0  0
A    2
R2
A    5
R1
M  END

>  <symbol>
Rsp

>  <m_abbr>
Rsp

>  <m_type>
rna

>  <m_subtype>
natural

>  <m_RgroupIdx>
4,1

>  <m_Rgroups>
OH,OH

$$$$

MolEngine07221613482D

  5  4  0  0  0  0            999 V2000
    1.6288    1.5758    0.0000 P   0  0  0  0  0  0  0  0  0  0  0  0
    3.1518    1.5758    0.0000 R#  0  0  0  0  0  0  0  0  0  0  0  0
    1.6288    0.0000    0.0000 S   0  0  0  0  0  0  0  0  0  0  0  0
    1.6389    3.0988    0.0000 O   0  0  0  0  0  0  0  0  0  0  0  0
    0.0000    1.5758    0.0000 R#  0  0  0  0  0  0  0  0  0  0  0  0
  1  5  1  0  0  0  0
  1  4  2  0  0  0  0
  1  2  1  6  0  0  0
  1  3  1  1  0  0  0
A    2
R2
A    5
R1
M  END

>  <symbol>
Ssp

>  <m_abbr>
Ssp

>  <m_type>
rna

>  <m_subtype>
natural

>  <m_RgroupIdx>
4,1

>  <m_Rgroups>
OH,OH

$$$$

MolEngine07221613482D

  7  6  0  0  0  0            999 V2000
    0.0000    3.8108    0.0000 R#  0  0  0  0  0  0  0  0  0  0  0  0
    1.6816    3.8075    0.0000 P   0  0  0  0  0  0  0  0  0  0  0  0
    1.6783    2.2845    0.0000 O   0  0  0  0  0  0  0  0  0  0  0  0
    1.6850    5.3305    0.0000 O   0  0  0  0  0  0  0  0  0  0  0  0
    3.2046    3.8042    0.0000 R#  0  0  0  0  0  0  0  0  0  0  0  0
    0.3593    0.0000    0.0000 C   0  0  0  0  0  0  0  0  0  0  0  0
    0.3593    1.5230    0.0000 C   0  0  0  0  0  0  0  0  0  0  0  0
  2  3  1  0  0  0  0
  2  4  2  0  0  0  0
  2  1  1  0  0  0  0
  2  5  1  0  0  0  0
  6  7  1  0  0  0  0
  7  3  1  0  0  0  0
A    1
R1
A    5
R2
M  END

>  <symbol>
eop

>  <m_abbr>
eop

>  <m_type>
rna

>  <m_subtype>
natural

>  <m_RgroupIdx>
0,4

>  <m_Rgroups>
OH,OH

$$$$

MolEngine07221613482D

  5  4  0  0  0  0            999 V2000
    1.3190    3.8075    0.0000 R#  0  0  0  0  0  0  0  0  0  0  0  0
    1.3190    2.2845    0.0000 C   0  0  0  0  0  0  0  0  0  0  0  0
    0.0000    1.5230    0.0000 O   0  0  0  0  0  0  0  0  0  0  0  0
    2.6379    1.5230    0.0000 C   0  0  0  0  0  0  0  0  0  0  0  0
    2.6379    0.0000    0.0000 R#  0  0  0  0  0  0  0  0  0  0  0  0
  1  2  1  0  0  0  0
  2  3  2  0  0  0  0
  2  4  1  0  0  0  0
  4  5  1  0  0  0  0
A    1
R1
A    5
R2
M  END

>  <symbol>
cm

>  <m_abbr>
cm

>  <m_type>
rna

>  <m_subtype>
natural

>  <m_RgroupIdx>
0,4

>  <m_Rgroups>
OH,OH

$$$$

MolEngine07221613482D

  6  5  0  0  0  0            999 V2000
    1.3188    2.2839    0.0000 C   0  0  0  0  0  0  0  0  0  0  0  0
    1.3188    0.7617    0.0000 C   0  0  0  0  0  0  0  0  0  0  0  0
    0.0000    0.0000    0.0000 O   0  0  0  0  0  0  0  0  0  0  0  0
    2.6377    3.0454    0.0000 N   0  0  0  0  0  0  0  0  0  0  0  0
    2.6378    0.0003    0.0000 R#  0  0  0  0  0  0  0  0  0  0  0  0
    2.6377    4.5684    0.0000 R#  0  0  0  0  0  0  0  0  0  0  0  0
  1  2  1  0  0  0  0
  2  3  2  0  0  0  0
  1  4  1  0  0  0  0
  2  5  1  0  0  0  0
  4  6  1  0  0  0  0
A    5
R1
A    6
R2
M  END

>  <symbol>
gly

>  <m_abbr>
gly

>  <m_type>
rna

>  <m_subtype>
natural

>  <m_RgroupIdx>
4,5

>  <m_Rgroups>
OH,OH

$$$$

MolEngine07221613482D

  5  4  0  0  0  0            999 V2000
    1.5759    1.5759    0.0000 P   0  0  0  0  0  0  0  0  0  0  0  0
    3.0989    1.5759    0.0000 R#  0  0  0  0  0  0  0  0  0  0  0  0
    1.5759    0.0000    0.0000 C   0  0  0  0  0  0  0  0  0  0  0  0
    1.5860    3.0989    0.0000 O   0  0  0  0  0  0  0  0  0  0  0  0
    0.0000    1.5759    0.0000 R#  0  0  0  0  0  0  0  0  0  0  0  0
  1  5  1  0  0  0  0
  1  4  2  0  0  0  0
  1  2  1  1  0  0  0
  1  3  1  6  0  0  0
A    2
R2
A    5
R1
M  END

>  <symbol>
Smp

>  <m_abbr>
Smp

>  <m_type>
rna

>  <m_subtype>
natural

>  <m_RgroupIdx>
4,1

>  <m_Rgroups>
OH,OH

$$$$

MolEngine07221613482D

  3  2  0  0  0  0            999 V2000
    0.0000    1.3190    0.0000 R#  0  0  0  0  0  0  0  0  0  0  0  0
    1.5230    1.3190    0.0000 C   0  0  0  0  0  0  0  0  0  0  0  0
    2.2845    0.0000    0.0000 R#  0  0  0  0  0  0  0  0  0  0  0  0
  1  2  1  0  0  0  0
  2  3  1  0  0  0  0
A    1
R1
A    3
R2
M  END

>  <symbol>
me

>  <m_abbr>
me

>  <m_type>
rna

>  <m_subtype>
natural

>  <m_RgroupIdx>
0,2

>  <m_Rgroups>
OH,OH

$$$$

MolEngine07221613482D

  4  3  0  0  0  0            999 V2000
    0.0000    1.3190    0.0000 R#  0  0  0  0  0  0  0  0  0  0  0  0
    1.5230    1.3190    0.0000 C   0  0  0  0  0  0  0  0  0  0  0  0
    2.2845    0.0000    0.0000 R#  0  0  0  0  0  0  0  0  0  0  0  0
    2.2845    2.6379    0.0000 O   0  0  0  0  0  0  0  0  0  0  0  0
  1  2  1  0  0  0  0
  2  3  1  0  0  0  0
  2  4  2  0  0  0  0
A    1
R1
A    3
R1
M  END

>  <symbol>
co

>  <m_abbr>
co

>  <m_type>
rna

>  <m_subtype>
natural

>  <m_RgroupIdx>
0,2

>  <m_Rgroups>
OH,OH

$$$$

   JSDraw212022510382D

 15 15  0  0  0  0              0 V2000
   22.4636  -12.4687    0.0000 C   0  0  0  0  0  0  0  0  0  0  0  0
   21.2016  -13.3856    0.0000 C   0  0  0  0  0  0  0  0  0  0  0  0
   21.6837  -14.8692    0.0000 C   0  0  0  0  0  0  0  0  0  0  0  0
   23.2437  -14.8692    0.0000 C   0  0  0  0  0  0  0  0  0  0  0  0
   23.7256  -13.3856    0.0000 O   0  0  0  0  0  0  0  0  0  0  0  0
   24.1607  -16.1312    0.0000 C   0  0  0  0  0  0  0  0  0  0  0  0
   25.7121  -15.9680    0.0000 O   0  0  0  0  0  0  0  0  0  0  0  0
   20.7667  -16.1313    0.0000 R#  0  0  0  0  0  0  0  0  0  0  0  0
   19.7179  -12.9034    0.0000 O   0  0  0  0  0  0  0  0  0  0  0  0
   18.5585  -13.9472    0.0000 C   0  0  0  0  0  0  0  0  0  0  0  0
   17.0749  -13.4651    0.0000 C   0  0  0  0  0  0  0  0  0  0  0  0
   15.9155  -14.5089    0.0000 O   0  0  0  0  0  0  0  0  0  0  0  0
   14.4319  -14.0267    0.0000 C   0  0  0  0  0  0  0  0  0  0  0  0
   22.4636  -10.9087    0.0000 R#  0  0  0  0  0  0  0  0  0  0  0  0
   26.3464  -14.5428    0.0000 R#  0  0  0  0  0  0  0  0  0  0  0  0
  1  2  1  0  0  0  0
  2  3  1  0  0  0  0
  3  4  1  0  0  0  0
  4  5  1  0  0  0  0
  5  1  1  0  0  0  0
  4  6  1  6  0  0  0
  6  7  1  0  0  0  0
  3  8  1  1  0  0  0
  2  9  1  1  0  0  0
  9 10  1  0  0  0  0
 10 11  1  0  0  0  0
 11 12  1  0  0  0  0
 12 13  1  0  0  0  0
  1 14  1  0  0  0  0
  7 15  1  0  0  0  0
A    8
R2
A   14
R3
A   15
R1
M  RGP  1   8   1
M  RGP  1  14   2
M  RGP  1  15   3
M  END

>  <symbol>
MOE

>  <m_abbr>
MOE

>  <m_type>
rna

>  <m_subtype>
natural

>  <m_RgroupIdx>
14,7,13

>  <m_Rgroups>
H,OH,H

$$$$

   JSDraw212022510532D

 10 10  0  0  0  0              0 V2000
   21.5800   -8.7880    0.0000 N   0  0  0  0  0  0  0  0  0  0  0  0
   20.2290   -8.0080    0.0000 C   0  0  0  0  0  0  0  0  0  0  0  0
   20.2290   -6.4480    0.0000 C   0  0  0  0  0  0  0  0  0  0  0  0
   21.5800   -5.6680    0.0000 C   0  0  0  0  0  0  0  0  0  0  0  0
   22.9310   -6.4480    0.0000 N   0  0  0  0  0  0  0  0  0  0  0  0
   22.9310   -8.0080    0.0000 C   0  0  0  0  0  0  0  0  0  0  0  0
   21.5800  -10.3480    0.0000 R#  0  0  0  0  0  0  0  0  0  0  0  0
   21.5800   -4.1080    0.0000 N   0  0  0  0  0  0  0  0  0  0  0  0
   18.8780   -5.6680    0.0000 C   0  0  0  0  0  0  0  0  0  0  0  0
   24.2820   -8.7880    0.0000 O   0  0  0  0  0  0  0  0  0  0  0  0
  1  2  1  0  0  0  0
  2  3  2  0  0  0  0
  3  4  1  0  0  0  0
  4  5  2  0  0  0  0
  5  6  1  0  0  0  0
  6  1  1  0  0  0  0
  1  7  1  0  0  0  0
  4  8  1  0  0  0  0
  3  9  1  0  0  0  0
  6 10  2  0  0  0  0
A    7
R1
M  RGP  1   7   1
M  END

>  <symbol>
5meC

>  <m_abbr>
5meC

>  <m_type>
rna

>  <m_subtype>
natural

>  <m_RgroupIdx>
6

>  <m_Rgroups>
H

$$$$

   JSDraw212022511052D

 11 11  0  0  0  0              0 V2000
   21.0713  -12.5322    0.0000 O   0  0  0  0  0  0  0  0  0  0  0  0
   19.7446  -13.3007    0.0000 C   0  0  0  0  0  0  0  0  0  0  0  0
   22.4003  -13.2970    0.0000 C   0  0  0  0  0  0  0  0  0  0  0  0
   20.1435  -14.7810    0.0000 C   0  0  0  0  0  0  0  0  0  0  0  0
   22.0056  -14.7784    0.0000 C   0  0  0  0  0  0  0  0  0  0  0  0
   20.1457  -16.3144    0.0000 O   0  0  0  0  0  0  0  0  0  0  0  0
   19.4686  -11.7128    0.0000 C   0  0  0  0  0  0  0  0  0  0  0  0
   22.3981  -11.3804    0.0000 R#  0  0  0  0  0  0  0  0  0  0  0  0
   18.5923  -11.0556    0.0000 O   0  0  0  0  0  0  0  0  0  0  0  0
   17.0590  -10.7682    0.0000 R#  0  0  0  0  0  0  0  0  0  0  0  0
   21.4491  -17.3440    0.0000 R#  0  0  0  0  0  0  0  0  0  0  0  0
  1  2  1  0  0  0  0
  1  3  1  0  0  0  0
  2  4  1  0  0  0  0
  2  7  1  0  0  0  0
  3  5  1  0  0  0  0
  3  8  1  6  0  0  0
  4  5  1  0  0  0  0
  4  6  1  6  0  0  0
  6 11  1  0  0  0  0
  7  9  1  0  0  0  0
  9 10  1  0  0  0  0
A    8
R3
A   10
R1
A   11
R2
M  RGP  1   8   1
M  RGP  1  10   2
M  RGP  1  11   3
M  END

>  <symbol>
dR

>  <m_abbr>
dR

>  <m_type>
rna

>  <m_subtype>
natural

>  <m_RgroupIdx>
9,10,7

>  <m_Rgroups>
H,H,H

$$$$

   JSDraw212022511122D

  9  9  0  0  0  0              0 V2000
   17.6800  -15.7040    0.0000 N   0  0  0  0  0  0  0  0  0  0  0  0
   16.3290  -14.9240    0.0000 C   0  0  0  0  0  0  0  0  0  0  0  0
   16.3290  -13.3640    0.0000 C   0  0  0  0  0  0  0  0  0  0  0  0
   17.6800  -12.5840    0.0000 C   0  0  0  0  0  0  0  0  0  0  0  0
   19.0310  -13.3640    0.0000 N   0  0  0  0  0  0  0  0  0  0  0  0
   19.0310  -14.9240    0.0000 C   0  0  0  0  0  0  0  0  0  0  0  0
   14.9780  -15.7040    0.0000 O   0  0  0  0  0  0  0  0  0  0  0  0
   20.3820  -15.7040    0.0000 O   0  0  0  0  0  0  0  0  0  0  0  0
   14.9780  -12.5840    0.0000 R#  0  0  0  0  0  0  0  0  0  0  0  0
  1  2  1  0  0  0  0
  2  3  1  0  0  0  0
  3  4  2  0  0  0  0
  4  5  1  0  0  0  0
  5  6  1  0  0  0  0
  6  1  1  0  0  0  0
  2  7  2  0  0  0  0
  6  8  2  0  0  0  0
  3  9  1  0  0  0  0
A    9
R1
M  RGP  1   9   1
M  END

>  <symbol>
psiU

>  <m_abbr>
psiU

>  <m_type>
rna

>  <m_subtype>
natural

>  <m_RgroupIdx>
8

>  <m_Rgroups>
H

$$$$

   JSDraw212022511192D

 11 11  0  0  0  0              0 V2000
   19.8120  -10.6080    0.0000 C   0  0  0  0  0  0  0  0  0  0  0  0
   18.5500  -11.5249    0.0000 C   0  0  0  0  0  0  0  0  0  0  0  0
   19.0321  -13.0085    0.0000 C   0  0  0  0  0  0  0  0  0  0  0  0
   20.5921  -13.0085    0.0000 O   0  0  0  0  0  0  0  0  0  0  0  0
   21.0740  -11.5249    0.0000 C   0  0  0  0  0  0  0  0  0  0  0  0
   17.0664  -11.0427    0.0000 F   0  0  0  0  0  0  0  0  0  0  0  0
   18.1151  -14.2706    0.0000 R#  0  0  0  0  0  0  0  0  0  0  0  0
   22.5577  -11.0428    0.0000 C   0  0  0  0  0  0  0  0  0  0  0  0
   23.7170  -12.0866    0.0000 O   0  0  0  0  0  0  0  0  0  0  0  0
   19.8120   -9.0480    0.0000 R#  0  0  0  0  0  0  0  0  0  0  0  0
   25.2006  -11.6045    0.0000 R#  0  0  0  0  0  0  0  0  0  0  0  0
  1  2  1  0  0  0  0
  2  3  1  0  0  0  0
  3  4  1  0  0  0  0
  4  5  1  0  0  0  0
  5  1  1  0  0  0  0
  2  6  1  6  0  0  0
  3  7  1  1  0  0  0
  5  8  1  1  0  0  0
  8  9  1  0  0  0  0
  1 10  1  6  0  0  0
  9 11  1  0  0  0  0
A    7
R3
A   10
R2
A   11
R1
M  RGP  1   7   1
M  RGP  1  10   2
M  RGP  1  11   3
M  END

>  <symbol>
fR

>  <m_abbr>
fR

>  <m_type>
rna

>  <m_subtype>
natural

>  <m_RgroupIdx>
10,9,6

>  <m_Rgroups>
H,OH,H

$$$$

   JSDraw212022511192D

 11 11  0  0  0  0              0 V2000
   19.8120  -10.6080    0.0000 C   0  0  0  0  0  0  0  0  0  0  0  0
   18.5500  -11.5249    0.0000 C   0  0  0  0  0  0  0  0  0  0  0  0
   19.0321  -13.0085    0.0000 C   0  0  0  0  0  0  0  0  0  0  0  0
   20.5921  -13.0085    0.0000 O   0  0  0  0  0  0  0  0  0  0  0  0
   21.0740  -11.5249    0.0000 C   0  0  0  0  0  0  0  0  0  0  0  0
   17.0664  -11.0427    0.0000 F   0  0  0  0  0  0  0  0  0  0  0  0
   18.1151  -14.2706    0.0000 R#  0  0  0  0  0  0  0  0  0  0  0  0
   22.5577  -11.0428    0.0000 C   0  0  0  0  0  0  0  0  0  0  0  0
   23.7170  -12.0866    0.0000 O   0  0  0  0  0  0  0  0  0  0  0  0
   19.8120   -9.0480    0.0000 R#  0  0  0  0  0  0  0  0  0  0  0  0
   25.2006  -11.6045    0.0000 R#  0  0  0  0  0  0  0  0  0  0  0  0
  1  2  1  0  0  0  0
  2  3  1  0  0  0  0
  3  4  1  0  0  0  0
  4  5  1  0  0  0  0
  5  1  1  0  0  0  0
  2  6  1  6  0  0  0
  3  7  1  1  0  0  0
  5  8  1  1  0  0  0
  8  9  1  0  0  0  0
  1 10  1  6  0  0  0
  9 11  1  0  0  0  0
A    7
R3
A   10
R2
A   11
R1
M  RGP  1   7   1
M  RGP  1  10   2
M  RGP  1  11   3
M  END

>  <symbol>
FR

>  <m_abbr>
FR

>  <m_type>
rna

>  <m_subtype>
natural

>  <m_RgroupIdx>
10,9,6

>  <m_Rgroups>
H,OH,H

$$$$

   JSDraw212022511312D

 13 13  0  0  0  0              0 V2000
   21.4369  -12.7496    0.0000 O   0  0  0  0  0  0  0  0  0  0  0  0
   20.0872  -13.5315    0.0000 C   0  0  0  0  0  0  0  0  0  0  0  0
   22.7890  -13.5277    0.0000 C   0  0  0  0  0  0  0  0  0  0  0  0
   20.4930  -15.0375    0.0000 C   0  0  0  0  0  0  0  0  0  0  0  0
   22.3874  -15.0349    0.0000 C   0  0  0  0  0  0  0  0  0  0  0  0
   20.4953  -16.5974    0.0000 O   0  0  0  0  0  0  0  0  0  0  0  0
   22.3897  -16.5948    0.0000 O   0  0  0  0  0  0  0  0  0  0  0  0
   19.8064  -11.9160    0.0000 C   0  0  0  0  0  0  0  0  0  0  0  0
   22.7867  -11.5779    0.0000 R#  0  0  0  0  0  0  0  0  0  0  0  0
   18.9149  -11.2474    0.0000 O   0  0  0  0  0  0  0  0  0  0  0  0
   17.3550  -10.9551    0.0000 R#  0  0  0  0  0  0  0  0  0  0  0  0
   21.8213  -17.6449    0.0000 R#  0  0  0  0  0  0  0  0  0  0  0  0
   23.7418  -17.3728    0.0000 C   0  0  0  0  0  0  0  0  0  0  0  0
  1  2  1  0  0  0  0
  1  3  1  0  0  0  0
  2  4  1  0  0  0  0
  2  8  1  1  0  0  0
  3  5  1  0  0  0  0
  3  9  1  1  0  0  0
  4  5  1  0  0  0  0
  4  6  1  6  0  0  0
  5  7  1  6  0  0  0
  6 12  1  0  0  0  0
  8 10  1  0  0  0  0
 10 11  1  0  0  0  0
  7 13  1  0  0  0  0
A    9
R3
A   11
R1
A   12
R2
M  RGP  1   9   1
M  RGP  1  11   2
M  RGP  1  12   3
M  END

>  <symbol>
mR

>  <m_abbr>
mR

>  <m_type>
rna

>  <m_subtype>
natural

>  <m_RgroupIdx>
10,11,8

>  <m_Rgroups>
H,OH,H

$$$$

   JSDraw212032510292D

 10 10  0  0  0  0              0 V2000
   18.3560  -12.3240    0.0000 N   0  0  0  0  0  0  0  0  0  0  0  0
   17.0050  -11.5440    0.0000 C   0  0  0  0  0  0  0  0  0  0  0  0
   17.0050   -9.9840    0.0000 C   0  0  0  0  0  0  0  0  0  0  0  0
   18.3560   -9.2040    0.0000 C   0  0  0  0  0  0  0  0  0  0  0  0
   19.7070   -9.9840    0.0000 N   0  0  0  0  0  0  0  0  0  0  0  0
   19.7070  -11.5440    0.0000 C   0  0  0  0  0  0  0  0  0  0  0  0
   18.3560   -7.6440    0.0000 O   0  0  0  0  0  0  0  0  0  0  0  0
   15.6540   -9.2040    0.0000 F   0  0  0  0  0  0  0  0  0  0  0  0
   21.0580  -12.3240    0.0000 O   0  0  0  0  0  0  0  0  0  0  0  0
   18.3560  -13.8840    0.0000 R#  0  0  0  0  0  0  0  0  0  0  0  0
  1  2  1  0  0  0  0
  2  3  2  0  0  0  0
  3  4  1  0  0  0  0
  4  5  1  0  0  0  0
  5  6  1  0  0  0  0
  6  1  1  0  0  0  0
  4  7  2  0  0  0  0
  3  8  1  0  0  0  0
  6  9  2  0  0  0  0
  1 10  1  0  0  0  0
A   10
R1
M  RGP  1  10   1
M  END

>  <symbol>
5fU

>  <m_abbr>
5fU

>  <m_type>
rna

>  <m_subtype>
natural

>  <m_RgroupIdx>
9

>  <m_Rgroups>
H

$$$$

   JSDraw212032510292D

 10 10  0  0  0  0              0 V2000
   18.3560  -12.3240    0.0000 N   0  0  0  0  0  0  0  0  0  0  0  0
   17.0050  -11.5440    0.0000 C   0  0  0  0  0  0  0  0  0  0  0  0
   17.0050   -9.9840    0.0000 C   0  0  0  0  0  0  0  0  0  0  0  0
   18.3560   -9.2040    0.0000 C   0  0  0  0  0  0  0  0  0  0  0  0
   19.7070   -9.9840    0.0000 N   0  0  0  0  0  0  0  0  0  0  0  0
   19.7070  -11.5440    0.0000 C   0  0  0  0  0  0  0  0  0  0  0  0
   18.3560   -7.6440    0.0000 O   0  0  0  0  0  0  0  0  0  0  0  0
   15.6540   -9.2040    0.0000 I   0  0  0  0  0  0  0  0  0  0  0  0
   21.0580  -12.3240    0.0000 O   0  0  0  0  0  0  0  0  0  0  0  0
   18.3560  -13.8840    0.0000 R#  0  0  0  0  0  0  0  0  0  0  0  0
  1  2  1  0  0  0  0
  2  3  2  0  0  0  0
  3  4  1  0  0  0  0
  4  5  1  0  0  0  0
  5  6  1  0  0  0  0
  6  1  1  0  0  0  0
  4  7  2  0  0  0  0
  3  8  1  0  0  0  0
  6  9  2  0  0  0  0
  1 10  1  0  0  0  0
A   10
R1
M  RGP  1  10   1
M  END

>  <symbol>
5iU

>  <m_abbr>
5iU

>  <m_type>
rna

>  <m_subtype>
natural

>  <m_RgroupIdx>
9

>  <m_Rgroups>
H

$$$$

   JSDraw212032510412D

 12 13  0  0  0  0              0 V2000
   18.7209  -12.7400    0.0000 C   0  0  0  0  0  0  0  0  0  0  0  0
   20.0720  -13.5200    0.0000 C   0  0  0  0  0  0  0  0  0  0  0  0
   20.0720  -15.0800    0.0000 C   0  0  0  0  0  0  0  0  0  0  0  0
   18.7209  -15.8600    0.0000 N   0  0  0  0  0  0  0  0  0  0  0  0
   17.3701  -15.0800    0.0000 C   0  0  0  0  0  0  0  0  0  0  0  0
   17.3701  -13.5200    0.0000 N   0  0  0  0  0  0  0  0  0  0  0  0
   21.4231  -15.8600    0.0000 N   0  0  0  0  0  0  0  0  0  0  0  0
   22.7739  -15.0800    0.0000 C   0  0  0  0  0  0  0  0  0  0  0  0
   22.7739  -13.5200    0.0000 N   0  0  0  0  0  0  0  0  0  0  0  0
   18.7209  -11.1800    0.0000 N   0  0  0  0  0  0  0  0  0  0  0  0
   21.4231  -17.4200    0.0000 R#  0  0  0  0  0  0  0  0  0  0  0  0
   17.3699  -10.4000    0.0000 C   0  0  0  0  0  0  0  0  0  0  0  0
  1 10  1  0  0  0  0
  1  6  2  0  0  0  0
  1  2  1  0  0  0  0
  9  2  1  0  0  0  0
  2  3  2  0  0  0  0
  7  3  1  0  0  0  0
  3  4  1  0  0  0  0
  4  5  2  0  0  0  0
  5  6  1  0  0  0  0
  7  8  1  0  0  0  0
  7 11  1  0  0  0  0
  8  9  2  0  0  0  0
 10 12  1  0  0  0  0
A   11
R1
M  RGP  1  11   1
M  END

>  <symbol>
meA

>  <m_abbr>
meA

>  <m_type>
rna

>  <m_subtype>
natural

>  <m_RgroupIdx>
10

>  <m_Rgroups>
H

$$$$
