Puromycin
     RDKit          2D

 35 38  0  0  1  0  0  0  0  0999 V2000
    2.0158    2.5281    0.0000 O   0  0  0  0  0  0  0  0  0  0  0  0
    1.4380   -1.3101    0.0000 O   0  0  0  0  0  0  0  0  0  0  0  0
    0.1298    5.0296    0.0000 O   0  0  0  0  0  0  0  0  0  0  0  0
   -2.1990    2.9196    0.0000 O   0  0  0  0  0  0  0  0  0  0  0  0
   -9.7115   -2.6762    0.0000 O   0  0  0  0  0  0  0  0  0  0  0  0
    3.9891    0.7249    0.0000 N   0  0  0  0  0  0  0  0  0  0  0  0
   -1.2858    0.4873    0.0000 N   0  0  0  0  0  0  0  0  0  0  0  0
    6.4137    0.8342    0.0000 N   0  0  0  0  0  0  0  0  0  0  0  0
    3.8255   -2.0108    0.0000 N   0  0  0  0  0  0  0  0  0  0  0  0
   -5.0076    1.8651    0.0000 R#  0  0  0  0  0  0  0  0  0  0  0  0
    8.3210   -1.8083    0.0000 N   0  0  0  0  0  0  0  0  0  0  0  0
    6.1317   -3.2073    0.0000 N   0  0  0  0  0  0  0  0  0  0  0  0
    0.1185    1.0146    0.0000 C   0  0  0  0  0  0  0  0  0  0  0  0
    1.3705    0.1884    0.0000 C   0  0  0  0  0  0  0  0  0  0  0  0
    0.5173    2.4606    0.0000 C   0  0  0  0  0  0  0  0  0  0  0  0
    2.5431    1.1238    0.0000 C   0  0  0  0  0  0  0  0  0  0  0  0
   -0.4180    3.6332    0.0000 C   0  0  0  0  0  0  0  0  0  0  0  0
    4.5163   -0.6793    0.0000 C   0  0  0  0  0  0  0  0  0  0  0  0
   -2.4445    1.4398    0.0000 C   0  0  0  0  0  0  0  0  0  0  0  0
    5.1617    1.6603    0.0000 C   0  0  0  0  0  0  0  0  0  0  0  0
   -3.8488    0.9126    0.0000 C   0  0  0  0  0  0  0  0  0  0  0  0
    6.0148   -0.6118    0.0000 C   0  0  0  0  0  0  0  0  0  0  0  0
   -4.0944   -0.5672    0.0000 C   0  0  0  0  0  0  0  0  0  0  0  0
    6.8225   -1.8758    0.0000 C   0  0  0  0  0  0  0  0  0  0  0  0
   -5.4986   -1.0944    0.0000 C   0  0  0  0  0  0  0  0  0  0  0  0
    4.6332   -3.2748    0.0000 C   0  0  0  0  0  0  0  0  0  0  0  0
   -6.6574   -0.1419    0.0000 C   0  0  0  0  0  0  0  0  0  0  0  0
   -5.7442   -2.5742    0.0000 C   0  0  0  0  0  0  0  0  0  0  0  0
    9.1287   -3.0723    0.0000 C   0  0  0  0  0  0  0  0  0  0  0  0
    9.0118   -0.4768    0.0000 C   0  0  0  0  0  0  0  0  0  0  0  0
   -8.0617   -0.6692    0.0000 C   0  0  0  0  0  0  0  0  0  0  0  0
   -7.1484   -3.1015    0.0000 C   0  0  0  0  0  0  0  0  0  0  0  0
   -8.3072   -2.1489    0.0000 C   0  0  0  0  0  0  0  0  0  0  0  0
  -10.8702   -1.7237    0.0000 C   0  0  0  0  0  0  0  0  0  0  0  0
   -0.8056    6.2022    0.0000 R#  0  0  0  0  0  0  0  0  0  0  0  0
  1 15  1  0
  1 16  1  0
 14  2  1  6
  3 17  1  0
  4 19  2  0
  5 33  1  0
  5 34  1  0
 16  6  1  1
  6 18  1  0
  6 20  1  0
 13  7  1  6
  7 19  1  0
  8 20  2  0
  8 22  1  0
  9 18  1  0
  9 26  2  0
 21 10  1  6
 11 24  1  0
 11 29  1  0
 11 30  1  0
 12 24  2  0
 12 26  1  0
 13 14  1  0
 13 15  1  0
 14 16  1  0
 15 17  1  1
 18 22  2  0
 19 21  1  0
 21 23  1  0
 22 24  1  0
 23 25  1  0
 25 27  2  0
 25 28  1  0
 27 31  1  0
 28 32  2  0
 31 33  2  0
 32 33  1  0
 35  3  1  0
M  RGP  2  10   1  35   2
V   10 *
V   35 *
M  END
>  <m_name>  (1)
Puromycin

>  <symbol>  (1)
PURO

>  <m_abbr>  (1)
PURO

>  <m_type>  (1)
chem

>  <m_subtype>  (1)
non-natural

>  <m_RgroupIdx>  (1)
9,34,None,None

>  <m_Rgroups>  (1)
H,H,None,None

>  <natAnalog>  (1)
A

$$$$
Phosphoramidite derivative 4
     RDKit          2D

 14 13  0  0  0  0  0  0  0  0999 V2000
   13.9925  -14.1440    0.0000 N   0  0  0  0  0  0  0  0  0  0  0  0
   15.3435  -13.3640    0.0000 C   0  0  0  0  0  0  0  0  0  0  0  0
   16.6945  -14.1440    0.0000 C   0  0  0  0  0  0  0  0  0  0  0  0
   18.0455  -13.3640    0.0000 O   0  0  0  0  0  0  0  0  0  0  0  0
   19.3965  -14.1440    0.0000 N   0  0  0  0  0  0  0  0  0  0  0  0
   19.3965  -15.7040    0.0000 C   0  0  0  0  0  0  0  0  0  0  0  0
   20.7475  -16.4840    0.0000 C   0  0  0  0  0  0  0  0  0  0  0  0
   22.0985  -15.7040    0.0000 C   0  0  0  0  0  0  0  0  0  0  0  0
   23.4495  -16.4840    0.0000 C   0  0  0  0  0  0  0  0  0  0  0  0
   24.8005  -15.7040    0.0000 C   0  0  0  0  0  0  0  0  0  0  0  0
   26.1515  -16.4840    0.0000 O   0  0  0  0  0  0  0  0  0  0  0  0
   15.3435  -11.8040    0.0000 O   0  0  0  0  0  0  0  0  0  0  0  0
   27.7115  -16.4840    0.0000 R#  0  0  0  0  0  0  0  0  0  0  0  0
   12.4325  -14.1440    0.0000 R#  0  0  0  0  0  0  0  0  0  0  0  0
  1  2  1  0
  2  3  1  0
  3  4  1  0
  4  5  1  0
  5  6  2  0
  6  7  1  0
  7  8  1  0
  8  9  1  0
  9 10  1  0
 10 11  1  0
  2 12  2  0
 11 13  1  0
  1 14  1  0
M  RGP  2  13   1  14   2
V   13 *
V   14 *
A   13
R2
A   14
R1
M  END
>  <m_name>  (2)
Phosphoramidite derivative 4

>  <symbol>  (2)
PAD4

>  <m_abbr>  (2)
PAD4

>  <m_type>  (2)
chem

>  <m_subtype>  (2)
non-natural

>  <m_RgroupIdx>  (2)
13,12,None,None

>  <m_Rgroups>  (2)
H,H,None,None

>  <natAnalog>  (2)
X

$$$$

     RDKit          2D

  7  6  0  0  0  0  0  0  0  0999 V2000
    3.8971    0.7500    0.0000 C   0  0  0  0  0  0  0  0  0  0  0  0
    2.5981   -0.0000    0.0000 C   0  0  0  0  0  0  0  0  0  0  0  0
    1.2990    0.7500    0.0000 N   0  0  0  0  0  0  0  0  0  0  0  0
    2.5981   -1.5000    0.0000 C   0  0  0  0  0  0  0  0  0  0  0  0
    1.2990   -2.2500    0.0000 O   0  0  0  0  0  0  0  0  0  0  0  0
    0.0000    0.0000    0.0000 R#  0  0  0  0  0  0  0  0  0  0  0  0
    3.8971   -2.2500    0.0000 R#  0  0  0  0  0  0  0  0  0  0  0  0
  2  1  1  1
  2  3  1  0
  3  6  1  0
  2  4  1  0
  4  7  1  0
  4  5  2  0
M  RGP  2   6   1   7   2
V    6 *
V    7 *
M  END
>  <m_name>  (3)
Alanine

>  <symbol>  (3)
A

>  <m_abbr>  (3)
A

>  <m_type>  (3)
aa

>  <m_subtype>  (3)
non-natural

>  <m_RgroupIdx>  (3)
5,6,None,None

>  <m_Rgroups>  (3)
H,OH,None,None

>  <m_attachmentPointIdx>  (3)
2,3,None,None

>  <natAnalog>  (3)
A

$$$$

     RDKit          2D

  7  6  0  0  0  0  0  0  0  0999 V2000
    3.8971    0.7500    0.0000 C   0  0  0  0  0  0  0  0  0  0  0  0
    2.5981   -0.0000    0.0000 C   0  0  0  0  0  0  0  0  0  0  0  0
    1.2990    0.7500    0.0000 N   0  0  0  0  0  0  0  0  0  0  0  0
    2.5981   -1.5000    0.0000 C   0  0  0  0  0  0  0  0  0  0  0  0
    1.2990   -2.2500    0.0000 O   0  0  0  0  0  0  0  0  0  0  0  0
    0.0000    0.0000    0.0000 R#  0  0  0  0  0  0  0  0  0  0  0  0
    3.8971   -2.2500    0.0000 R#  0  0  0  0  0  0  0  0  0  0  0  0
  2  1  1  6
  2  3  1  0
  3  6  1  0
  2  4  1  0
  4  7  1  0
  4  5  2  0
M  RGP  2   6   1   7   2
V    6 *
V    7 *
M  END
>  <m_name>  (4)
D-alanine

>  <symbol>  (4)
dA

>  <m_abbr>  (4)
dA

>  <m_type>  (4)
aa

>  <m_subtype>  (4)
non-natural

>  <m_RgroupIdx>  (4)
5,6,None,None

>  <m_Rgroups>  (4)
H,OH,None,None

>  <m_attachmentPointIdx>  (4)
2,3,None,None

>  <natAnalog>  (4)
A

$$$$

     RDKit          2D

  8  7  0  0  0  0  0  0  0  0999 V2000
    2.5981    3.0000    0.0000 C   0  0  0  0  0  0  0  0  0  0  0  0
    1.2990    2.2500    0.0000 C   0  0  0  0  0  0  0  0  0  0  0  0
    1.2990    0.7500    0.0000 N   0  0  0  0  0  0  0  0  0  0  0  0
    2.5981   -0.0000    0.0000 C   0  0  0  0  0  0  0  0  0  0  0  0
    0.0000    3.0000    0.0000 C   0  0  0  0  0  0  0  0  0  0  0  0
   -1.2990    2.2500    0.0000 O   0  0  0  0  0  0  0  0  0  0  0  0
    0.0000    0.0000    0.0000 R#  0  0  0  0  0  0  0  0  0  0  0  0
    0.0000    4.5000    0.0000 R#  0  0  0  0  0  0  0  0  0  0  0  0
  2  1  1  6
  2  3  1  0
  3  4  1  0
  3  7  1  0
  2  5  1  0
  5  8  1  0
  5  6  2  0
M  RGP  2   7   1   8   2
V    7 *
V    8 *
M  END
>  <m_name>  (5)
N-methyl-L-alanine

>  <symbol>  (5)
meA

>  <m_abbr>  (5)
meA

>  <m_type>  (5)
aa

>  <m_subtype>  (5)
non-natural

>  <m_RgroupIdx>  (5)
6,7,None,None

>  <m_Rgroups>  (5)
H,OH,None,None

>  <m_attachmentPointIdx>  (5)
2,4,None,None

>  <natAnalog>  (5)
A

$$$$

     RDKit          2D

  8  7  0  0  0  0  0  0  0  0999 V2000
    2.5981    3.0000    0.0000 C   0  0  0  0  0  0  0  0  0  0  0  0
    1.2990    2.2500    0.0000 C   0  0  0  0  0  0  0  0  0  0  0  0
    1.2990    0.7500    0.0000 N   0  0  0  0  0  0  0  0  0  0  0  0
    2.5981   -0.0000    0.0000 C   0  0  0  0  0  0  0  0  0  0  0  0
    0.0000    3.0000    0.0000 C   0  0  0  0  0  0  0  0  0  0  0  0
   -1.2990    2.2500    0.0000 O   0  0  0  0  0  0  0  0  0  0  0  0
    0.0000    0.0000    0.0000 R#  0  0  0  0  0  0  0  0  0  0  0  0
    0.0000    4.5000    0.0000 R#  0  0  0  0  0  0  0  0  0  0  0  0
  2  1  1  1
  2  3  1  0
  3  4  1  0
  3  7  1  0
  2  5  1  0
  5  8  1  0
  5  6  2  0
M  RGP  2   7   1   8   2
V    7 *
V    8 *
M  END
>  <m_name>  (6)
N-methyl-D-alanine

>  <symbol>  (6)
Me_dA

>  <m_abbr>  (6)
Me_dA

>  <m_type>  (6)
aa

>  <m_subtype>  (6)
non-natural

>  <m_RgroupIdx>  (6)
6,7,None,None

>  <m_Rgroups>  (6)
H,OH,None,None

>  <m_attachmentPointIdx>  (6)
2,4,None,None

>  <natAnalog>  (6)
A

$$$$

     RDKit          2D

 11 10  0  0  0  0  0  0  0  0999 V2000
    5.9462    1.2990    0.0000 C   0  0  0  0  0  0  0  0  0  0  0  0
    5.1962   -0.0000    0.0000 C   0  0  0  0  0  0  0  0  0  0  0  0
    4.4462   -1.2990    0.0000 C   0  0  0  0  0  0  0  0  0  0  0  0
    6.4952   -0.7500    0.0000 C   0  0  0  0  0  0  0  0  0  0  0  0
    3.8971    0.7500    0.0000 C   0  0  0  0  0  0  0  0  0  0  0  0
    2.5981   -0.0000    0.0000 C   0  0  0  0  0  0  0  0  0  0  0  0
    1.2990    0.7500    0.0000 N   0  0  0  0  0  0  0  0  0  0  0  0
    2.5981   -1.5000    0.0000 C   0  0  0  0  0  0  0  0  0  0  0  0
    1.2990   -2.2500    0.0000 O   0  0  0  0  0  0  0  0  0  0  0  0
    0.0000    0.0000    0.0000 R#  0  0  0  0  0  0  0  0  0  0  0  0
    3.8971   -2.2500    0.0000 R#  0  0  0  0  0  0  0  0  0  0  0  0
  1  2  1  0
  2  3  1  0
  2  4  1  0
  2  5  1  0
  6  5  1  1
  6  7  1  0
  7 10  1  0
  6  8  1  0
  8 11  1  0
  8  9  2  0
M  RGP  2  10   1  11   2
V   10 *
V   11 *
M  END
>  <m_name>  (7)
3-tert-butyl-L-alanine

>  <symbol>  (7)
Ala(tBu)

>  <m_abbr>  (7)
Ala(tBu)

>  <m_type>  (7)
aa

>  <m_subtype>  (7)
non-natural

>  <m_RgroupIdx>  (7)
9,10,None,None

>  <m_Rgroups>  (7)
H,OH,None,None

>  <m_attachmentPointIdx>  (7)
6,7,None,None

>  <natAnalog>  (7)
A

$$$$

     RDKit          2D

 16 17  0  0  0  0  0  0  0  0999 V2000
   -2.5981   -5.1073    0.0000 N   0  0  0  0  0  0  0  0  0  0  0  0
   -1.2990   -5.8573    0.0000 C   0  0  0  0  0  0  0  0  0  0  0  0
   -0.0000   -5.1073    0.0000 C   0  0  0  0  0  0  0  0  0  0  0  0
   -0.0000   -3.6073    0.0000 C   0  0  0  0  0  0  0  0  0  0  0  0
    1.2135   -2.7256    0.0000 C   0  0  0  0  0  0  0  0  0  0  0  0
    0.7500   -1.2990    0.0000 C   0  0  0  0  0  0  0  0  0  0  0  0
    1.5000    0.0000    0.0000 C   0  0  0  0  0  0  0  0  0  0  0  0
    0.7500    1.2990    0.0000 C   0  0  0  0  0  0  0  0  0  0  0  0
   -0.7500    1.2990    0.0000 C   0  0  0  0  0  0  0  0  0  0  0  0
   -1.5000    0.0000    0.0000 C   0  0  0  0  0  0  0  0  0  0  0  0
   -0.7500   -1.2990    0.0000 C   0  0  0  0  0  0  0  0  0  0  0  0
   -1.2135   -2.7256    0.0000 N   0  0  0  0  0  0  0  0  0  0  0  0
   -1.2990   -7.3573    0.0000 C   0  0  0  0  0  0  0  0  0  0  0  0
   -0.0000   -8.1073    0.0000 O   0  0  0  0  0  0  0  0  0  0  0  0
   -3.8971   -5.8573    0.0000 R#  0  0  0  0  0  0  0  0  0  0  0  0
   -2.5981   -8.1073    0.0000 R#  0  0  0  0  0  0  0  0  0  0  0  0
 15  1  1  0
  1  2  1  0
  2  3  1  1
  3  4  1  0
  4  5  2  0
  5  6  1  0
  6  7  2  0
  7  8  1  0
  8  9  2  0
  9 10  1  0
 10 11  2  0
 11 12  1  0
  2 13  1  0
 13 16  1  0
 13 14  2  0
 12  4  1  0
 11  6  1  0
M  RGP  2  15   1  16   2
V   15 *
V   16 *
M  END
>  <m_name>  (8)
3-indol-2-yl-L-alanine

>  <symbol>  (8)
Ala(indol-2-yl)

>  <m_abbr>  (8)
Ala(indol-2-yl)

>  <m_type>  (8)
aa

>  <m_subtype>  (8)
non-natural

>  <m_RgroupIdx>  (8)
14,15,None,None

>  <m_Rgroups>  (8)
H,OH,None,None

>  <m_attachmentPointIdx>  (8)
0,12,None,None

>  <natAnalog>  (8)
A

$$$$

     RDKit          2D

 16 17  0  0  0  0  0  0  0  0999 V2000
   -2.5981   -5.1073    0.0000 N   0  0  0  0  0  0  0  0  0  0  0  0
   -1.2990   -5.8573    0.0000 C   0  0  0  0  0  0  0  0  0  0  0  0
   -0.0000   -5.1073    0.0000 C   0  0  0  0  0  0  0  0  0  0  0  0
   -0.0000   -3.6073    0.0000 C   0  0  0  0  0  0  0  0  0  0  0  0
    1.2135   -2.7256    0.0000 C   0  0  0  0  0  0  0  0  0  0  0  0
    0.7500   -1.2990    0.0000 C   0  0  0  0  0  0  0  0  0  0  0  0
    1.5000    0.0000    0.0000 C   0  0  0  0  0  0  0  0  0  0  0  0
    0.7500    1.2990    0.0000 C   0  0  0  0  0  0  0  0  0  0  0  0
   -0.7500    1.2990    0.0000 C   0  0  0  0  0  0  0  0  0  0  0  0
   -1.5000    0.0000    0.0000 C   0  0  0  0  0  0  0  0  0  0  0  0
   -0.7500   -1.2990    0.0000 C   0  0  0  0  0  0  0  0  0  0  0  0
   -1.2135   -2.7256    0.0000 N   0  0  0  0  0  0  0  0  0  0  0  0
   -1.2990   -7.3573    0.0000 C   0  0  0  0  0  0  0  0  0  0  0  0
   -0.0000   -8.1073    0.0000 O   0  0  0  0  0  0  0  0  0  0  0  0
   -3.8971   -5.8573    0.0000 R#  0  0  0  0  0  0  0  0  0  0  0  0
   -2.5981   -8.1073    0.0000 R#  0  0  0  0  0  0  0  0  0  0  0  0
 15  1  1  0
  1  2  1  0
  2  3  1  6
  3  4  1  0
  4  5  2  0
  5  6  1  0
  6  7  2  0
  7  8  1  0
  8  9  2  0
  9 10  1  0
 10 11  2  0
 11 12  1  0
  2 13  1  0
 13 16  1  0
 13 14  2  0
 12  4  1  0
 11  6  1  0
M  RGP  2  15   1  16   2
V   15 *
V   16 *
M  END
>  <m_name>  (9)
3-indol-2-yl-D-alanine

>  <symbol>  (9)
dAla(indol-2-yl)

>  <m_abbr>  (9)
dAla(indol-2-yl)

>  <m_type>  (9)
aa

>  <m_subtype>  (9)
non-natural

>  <m_RgroupIdx>  (9)
14,15,None,None

>  <m_Rgroups>  (9)
H,OH,None,None

>  <m_attachmentPointIdx>  (9)
0,12,None,None

>  <natAnalog>  (9)
A

$$$$

     RDKit          2D

 17 18  0  0  0  0  0  0  0  0999 V2000
   -2.5981   -3.6073    0.0000 C   0  0  0  0  0  0  0  0  0  0  0  0
   -2.5981   -5.1073    0.0000 N   0  0  0  0  0  0  0  0  0  0  0  0
   -1.2990   -5.8573    0.0000 C   0  0  0  0  0  0  0  0  0  0  0  0
   -0.0000   -5.1073    0.0000 C   0  0  0  0  0  0  0  0  0  0  0  0
   -0.0000   -3.6073    0.0000 C   0  0  0  0  0  0  0  0  0  0  0  0
    1.2135   -2.7256    0.0000 C   0  0  0  0  0  0  0  0  0  0  0  0
    0.7500   -1.2990    0.0000 C   0  0  0  0  0  0  0  0  0  0  0  0
    1.5000    0.0000    0.0000 C   0  0  0  0  0  0  0  0  0  0  0  0
    0.7500    1.2990    0.0000 C   0  0  0  0  0  0  0  0  0  0  0  0
   -0.7500    1.2990    0.0000 C   0  0  0  0  0  0  0  0  0  0  0  0
   -1.5000    0.0000    0.0000 C   0  0  0  0  0  0  0  0  0  0  0  0
   -0.7500   -1.2990    0.0000 C   0  0  0  0  0  0  0  0  0  0  0  0
   -1.2135   -2.7256    0.0000 N   0  0  0  0  0  0  0  0  0  0  0  0
   -1.2990   -7.3573    0.0000 C   0  0  0  0  0  0  0  0  0  0  0  0
   -0.0000   -8.1073    0.0000 O   0  0  0  0  0  0  0  0  0  0  0  0
   -3.8971   -5.8573    0.0000 R#  0  0  0  0  0  0  0  0  0  0  0  0
   -2.5981   -8.1073    0.0000 R#  0  0  0  0  0  0  0  0  0  0  0  0
  1  2  1  0
  2 16  1  0
  2  3  1  0
  3  4  1  1
  4  5  1  0
  5  6  2  0
  6  7  1  0
  7  8  2  0
  8  9  1  0
  9 10  2  0
 10 11  1  0
 11 12  2  0
 12 13  1  0
  3 14  1  0
 14 17  1  0
 14 15  2  0
 13  5  1  0
 12  7  1  0
M  RGP  2  16   1  17   2
V   16 *
V   17 *
M  END
>  <m_name>  (10)
N-methyl-3-indol-2-yl-L-alanine

>  <symbol>  (10)
Me_Ala(indol-2-yl)

>  <m_abbr>  (10)
Me_Ala(indol-2-yl)

>  <m_type>  (10)
aa

>  <m_subtype>  (10)
non-natural

>  <m_RgroupIdx>  (10)
15,16,None,None

>  <m_Rgroups>  (10)
H,OH,None,None

>  <m_attachmentPointIdx>  (10)
1,13,None,None

>  <natAnalog>  (10)
A

$$$$

     RDKit          2D

 12 12  0  0  0  0  0  0  0  0999 V2000
    2.7760   -2.5981    0.0000 N   0  0  0  0  0  0  0  0  0  0  0  0
    3.5260   -1.2990    0.0000 C   0  0  0  0  0  0  0  0  0  0  0  0
    2.7760    0.0000    0.0000 C   0  0  0  0  0  0  0  0  0  0  0  0
    1.2760    0.0000    0.0000 C   0  0  0  0  0  0  0  0  0  0  0  0
    0.3943    1.2135    0.0000 N   0  0  0  0  0  0  0  0  0  0  0  0
   -1.0323    0.7500    0.0000 N   0  0  0  0  0  0  0  0  0  0  0  0
   -1.0323   -0.7500    0.0000 N   0  0  0  0  0  0  0  0  0  0  0  0
    0.3943   -1.2135    0.0000 N   0  0  0  0  0  0  0  0  0  0  0  0
    5.0260   -1.2990    0.0000 C   0  0  0  0  0  0  0  0  0  0  0  0
    5.7760    0.0000    0.0000 O   0  0  0  0  0  0  0  0  0  0  0  0
    3.5260   -3.8971    0.0000 R#  0  0  0  0  0  0  0  0  0  0  0  0
    5.7760   -2.5981    0.0000 R#  0  0  0  0  0  0  0  0  0  0  0  0
 11  1  1  0
  1  2  1  0
  2  3  1  1
  3  4  1  0
  4  5  2  0
  5  6  1  0
  6  7  2  0
  7  8  1  0
  2  9  1  0
  9 12  1  0
  9 10  2  0
  8  4  1  0
M  RGP  2  11   1  12   2
V   11 *
V   12 *
M  END
>  <m_name>  (11)
3-tetrazol-5-yl-L-alanine

>  <symbol>  (11)
Ala(5-Tet)

>  <m_abbr>  (11)
Ala(5-Tet)

>  <m_type>  (11)
aa

>  <m_subtype>  (11)
non-natural

>  <m_RgroupIdx>  (11)
10,11,None,None

>  <m_Rgroups>  (11)
H,OH,None,None

>  <m_attachmentPointIdx>  (11)
0,8,None,None

>  <natAnalog>  (11)
A

$$$$

     RDKit          2D

  8  7  0  0  0  0  0  0  0  0999 V2000
    5.1962   -0.0000    0.0000 C   0  0  0  0  0  0  0  0  0  0  0  0
    3.8971    0.7500    0.0000 C   0  0  0  0  0  0  0  0  0  0  0  0
    2.5981   -0.0000    0.0000 C   0  0  0  0  0  0  0  0  0  0  0  0
    1.2990    0.7500    0.0000 N   0  0  0  0  0  0  0  0  0  0  0  0
    2.5981   -1.5000    0.0000 C   0  0  0  0  0  0  0  0  0  0  0  0
    1.2990   -2.2500    0.0000 O   0  0  0  0  0  0  0  0  0  0  0  0
    0.0000    0.0000    0.0000 R#  0  0  0  0  0  0  0  0  0  0  0  0
    3.8971   -2.2500    0.0000 R#  0  0  0  0  0  0  0  0  0  0  0  0
  1  2  1  0
  3  2  1  1
  3  4  1  0
  4  7  1  0
  3  5  1  0
  5  8  1  0
  5  6  2  0
M  RGP  2   7   1   8   2
V    7 *
V    8 *
M  END
>  <m_name>  (12)
2-aminobutanoic acid

>  <symbol>  (12)
Abu

>  <m_abbr>  (12)
Abu

>  <m_type>  (12)
aa

>  <m_subtype>  (12)
non-natural

>  <m_RgroupIdx>  (12)
6,7,None,None

>  <m_Rgroups>  (12)
H,OH,None,None

>  <m_attachmentPointIdx>  (12)
3,4,None,None

>  <natAnalog>  (12)
X

$$$$

     RDKit          2D

  8  7  0  0  0  0  0  0  0  0999 V2000
    5.1962   -0.0000    0.0000 C   0  0  0  0  0  0  0  0  0  0  0  0
    3.8971    0.7500    0.0000 C   0  0  0  0  0  0  0  0  0  0  0  0
    2.5981   -0.0000    0.0000 C   0  0  0  0  0  0  0  0  0  0  0  0
    1.2990    0.7500    0.0000 N   0  0  0  0  0  0  0  0  0  0  0  0
    2.5981   -1.5000    0.0000 C   0  0  0  0  0  0  0  0  0  0  0  0
    1.2990   -2.2500    0.0000 O   0  0  0  0  0  0  0  0  0  0  0  0
    0.0000    0.0000    0.0000 R#  0  0  0  0  0  0  0  0  0  0  0  0
    3.8971   -2.2500    0.0000 R#  0  0  0  0  0  0  0  0  0  0  0  0
  1  2  1  0
  3  2  1  6
  3  4  1  0
  4  7  1  0
  3  5  1  0
  5  8  1  0
  5  6  2  0
M  RGP  2   7   1   8   2
V    7 *
V    8 *
M  END
>  <m_name>  (13)
D-2-aminobutyric acid

>  <symbol>  (13)
dAbu

>  <m_abbr>  (13)
dAbu

>  <m_type>  (13)
aa

>  <m_subtype>  (13)
non-natural

>  <m_RgroupIdx>  (13)
6,7,None,None

>  <m_Rgroups>  (13)
H,OH,None,None

>  <m_attachmentPointIdx>  (13)
3,4,None,None

>  <natAnalog>  (13)
X

$$$$

     RDKit          2D

  9  8  0  0  0  0  0  0  0  0999 V2000
    2.5981    4.5000    0.0000 C   0  0  0  0  0  0  0  0  0  0  0  0
    2.5981    3.0000    0.0000 C   0  0  0  0  0  0  0  0  0  0  0  0
    1.2990    2.2500    0.0000 C   0  0  0  0  0  0  0  0  0  0  0  0
    1.2990    0.7500    0.0000 N   0  0  0  0  0  0  0  0  0  0  0  0
    2.5981   -0.0000    0.0000 C   0  0  0  0  0  0  0  0  0  0  0  0
    0.0000    3.0000    0.0000 C   0  0  0  0  0  0  0  0  0  0  0  0
   -1.2990    2.2500    0.0000 O   0  0  0  0  0  0  0  0  0  0  0  0
    0.0000    0.0000    0.0000 R#  0  0  0  0  0  0  0  0  0  0  0  0
    0.0000    4.5000    0.0000 R#  0  0  0  0  0  0  0  0  0  0  0  0
  1  2  1  0
  3  2  1  6
  3  4  1  0
  4  5  1  0
  4  8  1  0
  3  6  1  0
  6  9  1  0
  6  7  2  0
M  RGP  2   8   1   9   2
V    8 *
V    9 *
M  END
>  <m_name>  (14)
N-methyl-L-2-aminobutyric acid

>  <symbol>  (14)
Me_Abu

>  <m_abbr>  (14)
Me_Abu

>  <m_type>  (14)
aa

>  <m_subtype>  (14)
non-natural

>  <m_RgroupIdx>  (14)
7,8,None,None

>  <m_Rgroups>  (14)
H,OH,None,None

>  <m_attachmentPointIdx>  (14)
3,5,None,None

>  <natAnalog>  (14)
X

$$$$

     RDKit          2D

  9  8  0  0  0  0  0  0  0  0999 V2000
    2.5981    4.5000    0.0000 C   0  0  0  0  0  0  0  0  0  0  0  0
    2.5981    3.0000    0.0000 C   0  0  0  0  0  0  0  0  0  0  0  0
    1.2990    2.2500    0.0000 C   0  0  0  0  0  0  0  0  0  0  0  0
    0.0000    3.0000    0.0000 C   0  0  0  0  0  0  0  0  0  0  0  0
   -1.2990    2.2500    0.0000 O   0  0  0  0  0  0  0  0  0  0  0  0
    1.2990    0.7500    0.0000 N   0  0  0  0  0  0  0  0  0  0  0  0
    2.5981   -0.0000    0.0000 C   0  0  0  0  0  0  0  0  0  0  0  0
    0.0000    0.0000    0.0000 R#  0  0  0  0  0  0  0  0  0  0  0  0
    0.0000    4.5000    0.0000 R#  0  0  0  0  0  0  0  0  0  0  0  0
  1  2  1  0
  3  2  1  1
  3  4  1  0
  4  9  1  0
  4  5  2  0
  3  6  1  0
  6  7  1  0
  6  8  1  0
M  RGP  2   8   1   9   2
V    8 *
V    9 *
M  END
>  <m_name>  (15)
N-methyl-D-2-aminobutyric acid

>  <symbol>  (15)
Me_dAbu

>  <m_abbr>  (15)
Me_dAbu

>  <m_type>  (15)
aa

>  <m_subtype>  (15)
non-natural

>  <m_RgroupIdx>  (15)
7,8,None,None

>  <m_Rgroups>  (15)
H,OH,None,None

>  <m_attachmentPointIdx>  (15)
5,3,None,None

>  <natAnalog>  (15)
X

$$$$

     RDKit          2D

 15 15  0  0  0  0  0  0  0  0999 V2000
    5.2500    1.2990    0.0000 C   0  0  0  0  0  0  0  0  0  0  0  0
    6.0000    0.0000    0.0000 N   0  0  0  0  0  0  0  0  0  0  0  0
    5.2500   -1.2990    0.0000 C   0  0  0  0  0  0  0  0  0  0  0  0
    3.7500   -1.2990    0.0000 C   0  0  0  0  0  0  0  0  0  0  0  0
    3.0000    0.0000    0.0000 C   0  0  0  0  0  0  0  0  0  0  0  0
    1.5000    0.0000    0.0000 N   0  0  0  0  0  0  0  0  0  0  0  0
    0.7500   -1.2990    0.0000 C   0  0  0  0  0  0  0  0  0  0  0  0
   -0.7500   -1.2990    0.0000 C   0  0  0  0  0  0  0  0  0  0  0  0
   -1.5000    0.0000    0.0000 O   0  0  0  0  0  0  0  0  0  0  0  0
   -0.7500    1.2990    0.0000 C   0  0  0  0  0  0  0  0  0  0  0  0
    0.7500    1.2990    0.0000 C   0  0  0  0  0  0  0  0  0  0  0  0
    6.0000   -2.5981    0.0000 C   0  0  0  0  0  0  0  0  0  0  0  0
    5.2500   -3.8971    0.0000 O   0  0  0  0  0  0  0  0  0  0  0  0
    7.5000    0.0000    0.0000 R#  0  0  0  0  0  0  0  0  0  0  0  0
    7.5000   -2.5981    0.0000 R#  0  0  0  0  0  0  0  0  0  0  0  0
  1  2  1  0
  2 14  1  0
  2  3  1  0
  3  4  1  6
  4  5  1  0
  5  6  1  0
  6  7  1  0
  7  8  1  0
  8  9  1  0
  9 10  1  0
 10 11  1  0
  3 12  1  0
 12 15  1  0
 12 13  2  0
 11  6  1  0
M  RGP  2  14   1  15   2
V   14 *
V   15 *
M  END
>  <m_name>  (16)
N-methyl-L-4-morpholino-2-aminobutyric acid

>  <symbol>  (16)
Me_Abu(morpholino)

>  <m_abbr>  (16)
Me_Abu(morpholino)

>  <m_type>  (16)
aa

>  <m_subtype>  (16)
non-natural

>  <m_RgroupIdx>  (16)
13,14,None,None

>  <m_Rgroups>  (16)
H,OH,None,None

>  <m_attachmentPointIdx>  (16)
1,11,None,None

>  <natAnalog>  (16)
X

$$$$

     RDKit          2D

 11 11  0  0  0  0  0  0  0  0999 V2000
    3.0000    0.0000    0.0000 N   0  0  0  0  0  0  0  0  0  0  0  0
    1.5000    0.0000    0.0000 C   0  0  0  0  0  0  0  0  0  0  0  0
    0.7500   -1.2990    0.0000 C   0  0  0  0  0  0  0  0  0  0  0  0
   -0.7500   -1.2990    0.0000 C   0  0  0  0  0  0  0  0  0  0  0  0
   -1.5000    0.0000    0.0000 C   0  0  0  0  0  0  0  0  0  0  0  0
   -0.7500    1.2990    0.0000 C   0  0  0  0  0  0  0  0  0  0  0  0
    0.7500    1.2990    0.0000 C   0  0  0  0  0  0  0  0  0  0  0  0
    1.5000    2.5981    0.0000 C   0  0  0  0  0  0  0  0  0  0  0  0
    0.7500    3.8971    0.0000 O   0  0  0  0  0  0  0  0  0  0  0  0
    3.7500   -1.2990    0.0000 R#  0  0  0  0  0  0  0  0  0  0  0  0
    3.0000    2.5981    0.0000 R#  0  0  0  0  0  0  0  0  0  0  0  0
 10  1  1  0
  1  2  1  0
  2  3  2  0
  3  4  1  0
  4  5  2  0
  5  6  1  0
  6  7  2  0
  7  8  1  0
  8 11  1  0
  8  9  2  0
  7  2  1  0
M  RGP  2  10   1  11   2
V   10 *
V   11 *
M  END
>  <m_name>  (17)
Anthranilic acid

>  <symbol>  (17)
2Abz

>  <m_abbr>  (17)
2Abz

>  <m_type>  (17)
aa

>  <m_subtype>  (17)
non-natural

>  <m_RgroupIdx>  (17)
9,10,None,None

>  <m_Rgroups>  (17)
H,OH,None,None

>  <m_attachmentPointIdx>  (17)
0,7,None,None

>  <natAnalog>  (17)
X

$$$$

     RDKit          2D

  8  7  0  0  0  0  0  0  0  0999 V2000
    3.3481    1.2990    0.0000 C   0  0  0  0  0  0  0  0  0  0  0  0
    2.5981   -0.0000    0.0000 C   0  0  0  0  0  0  0  0  0  0  0  0
    1.8481   -1.2990    0.0000 C   0  0  0  0  0  0  0  0  0  0  0  0
    1.2990    0.7500    0.0000 N   0  0  0  0  0  0  0  0  0  0  0  0
    3.8971   -0.7500    0.0000 C   0  0  0  0  0  0  0  0  0  0  0  0
    5.1962   -0.0000    0.0000 O   0  0  0  0  0  0  0  0  0  0  0  0
    0.0000    0.0000    0.0000 R#  0  0  0  0  0  0  0  0  0  0  0  0
    3.8971   -2.2500    0.0000 R#  0  0  0  0  0  0  0  0  0  0  0  0
  1  2  1  0
  2  3  1  0
  2  4  1  0
  4  7  1  0
  2  5  1  0
  5  8  1  0
  5  6  2  0
M  RGP  2   7   1   8   2
V    7 *
V    8 *
M  END
>  <m_name>  (18)
alpha-methyl-alanine

>  <symbol>  (18)
Aib

>  <m_abbr>  (18)
Aib

>  <m_type>  (18)
aa

>  <m_subtype>  (18)
non-natural

>  <m_RgroupIdx>  (18)
6,7,None,None

>  <m_Rgroups>  (18)
H,OH,None,None

>  <m_attachmentPointIdx>  (18)
3,4,None,None

>  <natAnalog>  (18)
X

$$$$

     RDKit          2D

 12 11  0  0  0  0  0  0  0  0999 V2000
   10.3923   -0.0000    0.0000 C   0  0  0  0  0  0  0  0  0  0  0  0
    9.0933    0.7500    0.0000 C   0  0  0  0  0  0  0  0  0  0  0  0
    7.7942   -0.0000    0.0000 C   0  0  0  0  0  0  0  0  0  0  0  0
    6.4952    0.7500    0.0000 C   0  0  0  0  0  0  0  0  0  0  0  0
    5.1962   -0.0000    0.0000 C   0  0  0  0  0  0  0  0  0  0  0  0
    3.8971    0.7500    0.0000 C   0  0  0  0  0  0  0  0  0  0  0  0
    2.5981   -0.0000    0.0000 C   0  0  0  0  0  0  0  0  0  0  0  0
    1.2990    0.7500    0.0000 N   0  0  0  0  0  0  0  0  0  0  0  0
    2.5981   -1.5000    0.0000 C   0  0  0  0  0  0  0  0  0  0  0  0
    1.2990   -2.2500    0.0000 O   0  0  0  0  0  0  0  0  0  0  0  0
    0.0000    0.0000    0.0000 R#  0  0  0  0  0  0  0  0  0  0  0  0
    3.8971   -2.2500    0.0000 R#  0  0  0  0  0  0  0  0  0  0  0  0
  1  2  1  0
  2  3  1  0
  3  4  1  0
  4  5  1  0
  5  6  1  0
  7  6  1  1
  7  8  1  0
  8 11  1  0
  7  9  1  0
  9 12  1  0
  9 10  2  0
M  RGP  2  11   1  12   2
V   11 *
V   12 *
M  END
>  <m_name>  (19)
6-ethyl-L-norleucine

>  <symbol>  (19)
Aoc(2)

>  <m_abbr>  (19)
Aoc(2)

>  <m_type>  (19)
aa

>  <m_subtype>  (19)
non-natural

>  <m_RgroupIdx>  (19)
10,11,None,None

>  <m_Rgroups>  (19)
H,OH,None,None

>  <m_attachmentPointIdx>  (19)
7,8,None,None

>  <natAnalog>  (19)
L

$$$$

     RDKit          2D

  9  8  0  0  0  0  0  0  0  0999 V2000
    1.2990    0.7500    0.0000 N   0  0  0  0  0  0  0  0  0  0  0  0
    2.5981   -0.0000    0.0000 C   0  0  0  0  0  0  0  0  0  0  0  0
    3.8971    0.7500    0.0000 C   0  0  0  0  0  0  0  0  0  0  0  0
    5.1962   -0.0000    0.0000 C   0  0  0  0  0  0  0  0  0  0  0  0
    6.4952    0.7500    0.0000 C   0  0  0  0  0  0  0  0  0  0  0  0
    7.7942   -0.0000    0.0000 C   0  0  0  0  0  0  0  0  0  0  0  0
    7.7942   -1.5000    0.0000 O   0  0  0  0  0  0  0  0  0  0  0  0
    0.0000    0.0000    0.0000 R#  0  0  0  0  0  0  0  0  0  0  0  0
    9.0933    0.7500    0.0000 R#  0  0  0  0  0  0  0  0  0  0  0  0
  8  1  1  0
  1  2  1  0
  2  3  1  0
  3  4  1  0
  4  5  1  0
  5  6  1  0
  6  9  1  0
  6  7  2  0
M  RGP  2   8   1   9   2
V    8 *
V    9 *
M  END
>  <m_name>  (20)
5-aminovaleric acid

>  <symbol>  (20)
5-Ava

>  <m_abbr>  (20)
5-Ava

>  <m_type>  (20)
aa

>  <m_subtype>  (20)
non-natural

>  <m_RgroupIdx>  (20)
7,8,None,None

>  <m_Rgroups>  (20)
H,OH,None,None

>  <m_attachmentPointIdx>  (20)
0,5,None,None

>  <natAnalog>  (20)
X

$$$$

     RDKit          2D

  7  6  0  0  0  0  0  0  0  0999 V2000
    1.2990    0.7500    0.0000 N   0  0  0  0  0  0  0  0  0  0  0  0
    2.5981   -0.0000    0.0000 C   0  0  0  0  0  0  0  0  0  0  0  0
    3.8971    0.7500    0.0000 C   0  0  0  0  0  0  0  0  0  0  0  0
    5.1962   -0.0000    0.0000 C   0  0  0  0  0  0  0  0  0  0  0  0
    5.1962   -1.5000    0.0000 O   0  0  0  0  0  0  0  0  0  0  0  0
    0.0000    0.0000    0.0000 R#  0  0  0  0  0  0  0  0  0  0  0  0
    6.4952    0.7500    0.0000 R#  0  0  0  0  0  0  0  0  0  0  0  0
  6  1  1  0
  1  2  1  0
  2  3  1  0
  3  4  1  0
  4  7  1  0
  4  5  2  0
M  RGP  2   6   1   7   2
V    6 *
V    7 *
M  END
>  <m_name>  (21)
beta-alanine

>  <symbol>  (21)
Bal

>  <m_abbr>  (21)
Bal

>  <m_type>  (21)
aa

>  <m_subtype>  (21)
non-natural

>  <m_RgroupIdx>  (21)
5,6,None,None

>  <m_Rgroups>  (21)
H,OH,None,None

>  <m_attachmentPointIdx>  (21)
0,3,None,None

>  <natAnalog>  (21)
A

$$$$

     RDKit          2D

  8  7  0  0  0  0  0  0  0  0999 V2000
    2.5981   -0.0000    0.0000 C   0  0  0  0  0  0  0  0  0  0  0  0
    1.2990    0.7500    0.0000 N   0  0  0  0  0  0  0  0  0  0  0  0
    1.2990    2.2500    0.0000 C   0  0  0  0  0  0  0  0  0  0  0  0
    2.5981    3.0000    0.0000 C   0  0  0  0  0  0  0  0  0  0  0  0
    2.5981    4.5000    0.0000 C   0  0  0  0  0  0  0  0  0  0  0  0
    1.2990    5.2500    0.0000 O   0  0  0  0  0  0  0  0  0  0  0  0
    0.0000    0.0000    0.0000 R#  0  0  0  0  0  0  0  0  0  0  0  0
    3.8971    5.2500    0.0000 R#  0  0  0  0  0  0  0  0  0  0  0  0
  1  2  1  0
  2  7  1  0
  2  3  1  0
  3  4  1  0
  4  5  1  0
  5  8  1  0
  5  6  2  0
M  RGP  2   7   1   8   2
V    7 *
V    8 *
M  END
>  <m_name>  (22)
N-methyl-beta alanine

>  <symbol>  (22)
Me_Bal

>  <m_abbr>  (22)
Me_Bal

>  <m_type>  (22)
aa

>  <m_subtype>  (22)
non-natural

>  <m_RgroupIdx>  (22)
6,7,None,None

>  <m_Rgroups>  (22)
H,OH,None,None

>  <m_attachmentPointIdx>  (22)
1,4,None,None

>  <natAnalog>  (22)
A

$$$$

     RDKit          2D

 11 10  0  0  0  0  0  0  0  0999 V2000
    1.2990    0.7500    0.0000 N   0  0  0  0  0  0  0  0  0  0  0  0
    2.5981   -0.0000    0.0000 C   0  0  0  0  0  0  0  0  0  0  0  0
    3.8971    0.7500    0.0000 C   0  0  0  0  0  0  0  0  0  0  0  0
    5.1962   -0.0000    0.0000 C   0  0  0  0  0  0  0  0  0  0  0  0
    5.1962   -1.5000    0.0000 O   0  0  0  0  0  0  0  0  0  0  0  0
    6.4952    0.7500    0.0000 O   0  0  0  0  0  0  0  0  0  0  0  0
    1.2990    2.2500    0.0000 C   0  0  0  0  0  0  0  0  0  0  0  0
    2.5981    3.0000    0.0000 C   0  0  0  0  0  0  0  0  0  0  0  0
    3.8971    2.2500    0.0000 O   0  0  0  0  0  0  0  0  0  0  0  0
    0.0000    0.0000    0.0000 R#  0  0  0  0  0  0  0  0  0  0  0  0
    2.5981    4.5000    0.0000 R#  0  0  0  0  0  0  0  0  0  0  0  0
 10  1  1  0
  1  2  1  0
  2  3  1  0
  3  4  1  0
  4  5  2  0
  4  6  1  0
  1  7  1  0
  7  8  1  0
  8 11  1  0
  8  9  2  0
M  RGP  2  10   1  11   2
V   10 *
V   11 *
M  END
>  <m_name>  (23)
N-(carboxymethyl)-beta alanine

>  <symbol>  (23)
HOCOCH2_Bal

>  <m_abbr>  (23)
HOCOCH2_Bal

>  <m_type>  (23)
aa

>  <m_subtype>  (23)
non-natural

>  <m_RgroupIdx>  (23)
9,10,None,None

>  <m_Rgroups>  (23)
H,OH,None,None

>  <m_attachmentPointIdx>  (23)
0,7,None,None

>  <natAnalog>  (23)
A

$$$$

     RDKit          2D

 12 11  0  0  0  0  0  0  0  0999 V2000
    1.2990    0.7500    0.0000 N   0  0  0  0  0  0  0  0  0  0  0  0
    2.5981   -0.0000    0.0000 C   0  0  0  0  0  0  0  0  0  0  0  0
    2.5981   -1.5000    0.0000 C   0  0  0  0  0  0  0  0  0  0  0  0
    3.8971   -2.2500    0.0000 S   0  0  0  0  0  0  0  0  0  0  0  0
    3.8971   -3.7500    0.0000 C   0  0  0  0  0  0  0  0  0  0  0  0
    5.1962   -4.5000    0.0000 C   0  0  0  0  0  0  0  0  0  0  0  0
    6.4952   -3.7500    0.0000 O   0  0  0  0  0  0  0  0  0  0  0  0
    3.8971    0.7500    0.0000 C   0  0  0  0  0  0  0  0  0  0  0  0
    5.1962   -0.0000    0.0000 N   0  0  0  0  0  0  0  0  0  0  0  0
    3.8971    2.2500    0.0000 O   0  0  0  0  0  0  0  0  0  0  0  0
    0.0000    0.0000    0.0000 R#  0  0  0  0  0  0  0  0  0  0  0  0
    5.1962   -6.0000    0.0000 R#  0  0  0  0  0  0  0  0  0  0  0  0
 11  1  1  0
  1  2  1  0
  2  3  1  6
  3  4  1  0
  4  5  1  0
  5  6  1  0
  6 12  1  0
  6  7  2  0
  2  8  1  0
  8  9  1  0
  8 10  2  0
M  RGP  2  11   1  12   2
V   11 *
V   12 *
M  END
>  <symbol>  (24)
Cys(EtO2H)_NH2

>  <m_abbr>  (24)
Cys(EtO2H)_NH2

>  <m_type>  (24)
aa

>  <m_subtype>  (24)
non-natural

>  <m_RgroupIdx>  (24)
10,11,None,None

>  <m_Rgroups>  (24)
H,OH,None,None

>  <m_attachmentPointIdx>  (24)
0,5,None,None

>  <natAnalog>  (24)
C

$$$$

     RDKit          2D

 13 13  0  0  0  0  0  0  0  0999 V2000
    3.0000   -2.5981    0.0000 N   0  0  0  0  0  0  0  0  0  0  0  0
    3.7500   -1.2990    0.0000 C   0  0  0  0  0  0  0  0  0  0  0  0
    3.0000    0.0000    0.0000 C   0  0  0  0  0  0  0  0  0  0  0  0
    1.5000    0.0000    0.0000 C   0  0  0  0  0  0  0  0  0  0  0  0
    0.7500   -1.2990    0.0000 C   0  0  0  0  0  0  0  0  0  0  0  0
   -0.7500   -1.2990    0.0000 C   0  0  0  0  0  0  0  0  0  0  0  0
   -1.5000    0.0000    0.0000 C   0  0  0  0  0  0  0  0  0  0  0  0
   -0.7500    1.2990    0.0000 C   0  0  0  0  0  0  0  0  0  0  0  0
    0.7500    1.2990    0.0000 C   0  0  0  0  0  0  0  0  0  0  0  0
    5.2500   -1.2990    0.0000 C   0  0  0  0  0  0  0  0  0  0  0  0
    6.0000    0.0000    0.0000 O   0  0  0  0  0  0  0  0  0  0  0  0
    3.7500   -3.8971    0.0000 R#  0  0  0  0  0  0  0  0  0  0  0  0
    6.0000   -2.5981    0.0000 R#  0  0  0  0  0  0  0  0  0  0  0  0
 12  1  1  0
  1  2  1  0
  2  3  1  1
  3  4  1  0
  4  5  1  0
  5  6  1  0
  6  7  1  0
  7  8  1  0
  8  9  1  0
  2 10  1  0
 10 13  1  0
 10 11  2  0
  9  4  1  0
M  RGP  2  12   1  13   2
V   12 *
V   13 *
M  END
>  <m_name>  (25)
3-cyclohexyl-L-alanine

>  <symbol>  (25)
Cha

>  <m_abbr>  (25)
Cha

>  <m_type>  (25)
aa

>  <m_subtype>  (25)
non-natural

>  <m_RgroupIdx>  (25)
11,12,None,None

>  <m_Rgroups>  (25)
H,OH,None,None

>  <m_attachmentPointIdx>  (25)
0,9,None,None

>  <natAnalog>  (25)
A

$$$$

     RDKit          2D

 13 13  0  0  0  0  0  0  0  0999 V2000
    3.0000   -2.5981    0.0000 N   0  0  0  0  0  0  0  0  0  0  0  0
    3.7500   -1.2990    0.0000 C   0  0  0  0  0  0  0  0  0  0  0  0
    3.0000    0.0000    0.0000 C   0  0  0  0  0  0  0  0  0  0  0  0
    1.5000    0.0000    0.0000 C   0  0  0  0  0  0  0  0  0  0  0  0
    0.7500   -1.2990    0.0000 C   0  0  0  0  0  0  0  0  0  0  0  0
   -0.7500   -1.2990    0.0000 C   0  0  0  0  0  0  0  0  0  0  0  0
   -1.5000    0.0000    0.0000 C   0  0  0  0  0  0  0  0  0  0  0  0
   -0.7500    1.2990    0.0000 C   0  0  0  0  0  0  0  0  0  0  0  0
    0.7500    1.2990    0.0000 C   0  0  0  0  0  0  0  0  0  0  0  0
    5.2500   -1.2990    0.0000 C   0  0  0  0  0  0  0  0  0  0  0  0
    6.0000    0.0000    0.0000 O   0  0  0  0  0  0  0  0  0  0  0  0
    3.7500   -3.8971    0.0000 R#  0  0  0  0  0  0  0  0  0  0  0  0
    6.0000   -2.5981    0.0000 R#  0  0  0  0  0  0  0  0  0  0  0  0
 12  1  1  0
  1  2  1  0
  2  3  1  6
  3  4  1  0
  4  5  1  0
  5  6  1  0
  6  7  1  0
  7  8  1  0
  8  9  1  0
  2 10  1  0
 10 13  1  0
 10 11  2  0
  9  4  1  0
M  RGP  2  12   1  13   2
V   12 *
V   13 *
M  END
>  <m_name>  (26)
3-cyclohexyl-D-alanine

>  <symbol>  (26)
dCha

>  <m_abbr>  (26)
dCha

>  <m_type>  (26)
aa

>  <m_subtype>  (26)
non-natural

>  <m_RgroupIdx>  (26)
11,12,None,None

>  <m_Rgroups>  (26)
H,OH,None,None

>  <m_attachmentPointIdx>  (26)
0,9,None,None

>  <natAnalog>  (26)
A

$$$$

     RDKit          2D

 14 14  0  0  0  0  0  0  0  0999 V2000
    1.5000   -2.5981    0.0000 C   0  0  0  0  0  0  0  0  0  0  0  0
    3.0000   -2.5981    0.0000 N   0  0  0  0  0  0  0  0  0  0  0  0
    3.7500   -1.2990    0.0000 C   0  0  0  0  0  0  0  0  0  0  0  0
    3.0000    0.0000    0.0000 C   0  0  0  0  0  0  0  0  0  0  0  0
    1.5000    0.0000    0.0000 C   0  0  0  0  0  0  0  0  0  0  0  0
    0.7500   -1.2990    0.0000 C   0  0  0  0  0  0  0  0  0  0  0  0
   -0.7500   -1.2990    0.0000 C   0  0  0  0  0  0  0  0  0  0  0  0
   -1.5000    0.0000    0.0000 C   0  0  0  0  0  0  0  0  0  0  0  0
   -0.7500    1.2990    0.0000 C   0  0  0  0  0  0  0  0  0  0  0  0
    0.7500    1.2990    0.0000 C   0  0  0  0  0  0  0  0  0  0  0  0
    5.2500   -1.2990    0.0000 C   0  0  0  0  0  0  0  0  0  0  0  0
    6.0000    0.0000    0.0000 O   0  0  0  0  0  0  0  0  0  0  0  0
    3.7500   -3.8971    0.0000 R#  0  0  0  0  0  0  0  0  0  0  0  0
    6.0000   -2.5981    0.0000 R#  0  0  0  0  0  0  0  0  0  0  0  0
  1  2  1  0
  2 13  1  0
  2  3  1  0
  3  4  1  1
  4  5  1  0
  5  6  1  0
  6  7  1  0
  7  8  1  0
  8  9  1  0
  9 10  1  0
  3 11  1  0
 11 14  1  0
 11 12  2  0
 10  5  1  0
M  RGP  2  13   1  14   2
V   13 *
V   14 *
M  END
>  <m_name>  (27)
N-methyl-3-cyclohexyl-L-alanine

>  <symbol>  (27)
Me_Cha

>  <m_abbr>  (27)
Me_Cha

>  <m_type>  (27)
aa

>  <m_subtype>  (27)
non-natural

>  <m_RgroupIdx>  (27)
12,13,None,None

>  <m_Rgroups>  (27)
H,OH,None,None

>  <m_attachmentPointIdx>  (27)
1,10,None,None

>  <natAnalog>  (27)
A

$$$$

     RDKit          2D

 10  9  0  0  0  0  0  0  0  0999 V2000
    1.2990    0.7500    0.0000 N   0  0  0  0  0  0  0  0  0  0  0  0
    2.5981   -0.0000    0.0000 C   0  0  0  0  0  0  0  0  0  0  0  0
    3.8971    0.7500    0.0000 C   0  0  0  0  0  0  0  0  0  0  0  0
    5.1962   -0.0000    0.0000 C   0  0  0  0  0  0  0  0  0  0  0  0
    5.1962   -1.5000    0.0000 O   0  0  0  0  0  0  0  0  0  0  0  0
    2.5981   -1.5000    0.0000 C   0  0  0  0  0  0  0  0  0  0  0  0
    1.2990   -2.2500    0.0000 O   0  0  0  0  0  0  0  0  0  0  0  0
    0.0000    0.0000    0.0000 R#  0  0  0  0  0  0  0  0  0  0  0  0
    3.8971   -2.2500    0.0000 R#  0  0  0  0  0  0  0  0  0  0  0  0
    6.4952    0.7500    0.0000 R#  0  0  0  0  0  0  0  0  0  0  0  0
  8  1  1  0
  1  2  1  0
  2  3  1  1
  3  4  1  0
  4 10  1  0
  4  5  2  0
  2  6  1  0
  6  9  1  0
  6  7  2  0
M  RGP  3   8   1   9   2  10   3
V    8 *
V    9 *
V   10 *
M  END
>  <m_name>  (28)
Aspartic acid

>  <symbol>  (28)
D

>  <m_abbr>  (28)
D

>  <m_type>  (28)
aa

>  <m_subtype>  (28)
non-natural

>  <m_RgroupIdx>  (28)
7,8,9,None

>  <m_Rgroups>  (28)
H,OH,OH,None

>  <m_attachmentPointIdx>  (28)
0,5,3,None

>  <natAnalog>  (28)
D

$$$$

     RDKit          2D

 11 10  0  0  0  0  0  0  0  0999 V2000
    2.5981   -0.0000    0.0000 C   0  0  0  0  0  0  0  0  0  0  0  0
    1.2990    0.7500    0.0000 N   0  0  0  0  0  0  0  0  0  0  0  0
    1.2990    2.2500    0.0000 C   0  0  0  0  0  0  0  0  0  0  0  0
    2.5981    3.0000    0.0000 C   0  0  0  0  0  0  0  0  0  0  0  0
    2.5981    4.5000    0.0000 C   0  0  0  0  0  0  0  0  0  0  0  0
    1.2990    5.2500    0.0000 O   0  0  0  0  0  0  0  0  0  0  0  0
    0.0000    3.0000    0.0000 C   0  0  0  0  0  0  0  0  0  0  0  0
   -1.2990    2.2500    0.0000 O   0  0  0  0  0  0  0  0  0  0  0  0
    0.0000    0.0000    0.0000 R#  0  0  0  0  0  0  0  0  0  0  0  0
    0.0000    4.5000    0.0000 R#  0  0  0  0  0  0  0  0  0  0  0  0
    3.8971    5.2500    0.0000 R#  0  0  0  0  0  0  0  0  0  0  0  0
  1  2  1  0
  2  9  1  0
  2  3  1  0
  3  4  1  6
  4  5  1  0
  5 11  1  0
  5  6  2  0
  3  7  1  0
  7 10  1  0
  7  8  2  0
M  RGP  3   9   1  10   2  11   3
V    9 *
V   10 *
V   11 *
M  END
>  <m_name>  (29)
N-methyl-L-aspartic acid

>  <symbol>  (29)
meD

>  <m_abbr>  (29)
meD

>  <m_type>  (29)
aa

>  <m_subtype>  (29)
non-natural

>  <m_RgroupIdx>  (29)
8,9,10,None

>  <m_Rgroups>  (29)
H,OH,OH,None

>  <m_attachmentPointIdx>  (29)
1,6,4,None

>  <natAnalog>  (29)
D

$$$$

     RDKit          2D

 15 15  0  0  0  0  0  0  0  0999 V2000
    3.0000   -2.5981    0.0000 N   0  0  0  0  0  0  0  0  0  0  0  0
    3.7500   -1.2990    0.0000 C   0  0  0  0  0  0  0  0  0  0  0  0
    5.2500   -1.2990    0.0000 C   0  0  0  0  0  0  0  0  0  0  0  0
    6.0000   -2.5981    0.0000 C   0  0  0  0  0  0  0  0  0  0  0  0
    5.2500   -3.8971    0.0000 O   0  0  0  0  0  0  0  0  0  0  0  0
    3.0000    0.0000    0.0000 C   0  0  0  0  0  0  0  0  0  0  0  0
    3.7500    1.2990    0.0000 O   0  0  0  0  0  0  0  0  0  0  0  0
    1.5000    0.0000    0.0000 N   0  0  0  0  0  0  0  0  0  0  0  0
    0.7500   -1.2990    0.0000 C   0  0  0  0  0  0  0  0  0  0  0  0
   -0.7500   -1.2990    0.0000 C   0  0  0  0  0  0  0  0  0  0  0  0
   -1.5000    0.0000    0.0000 C   0  0  0  0  0  0  0  0  0  0  0  0
   -0.7500    1.2990    0.0000 C   0  0  0  0  0  0  0  0  0  0  0  0
    0.7500    1.2990    0.0000 C   0  0  0  0  0  0  0  0  0  0  0  0
    3.7500   -3.8971    0.0000 R#  0  0  0  0  0  0  0  0  0  0  0  0
    7.5000   -2.5981    0.0000 R#  0  0  0  0  0  0  0  0  0  0  0  0
 14  1  1  0
  1  2  1  0
  2  3  1  6
  3  4  1  0
  4 15  1  0
  4  5  2  0
  2  6  1  0
  6  7  2  0
  6  8  1  0
  8  9  1  0
  9 10  1  0
 10 11  1  0
 11 12  1  0
 12 13  1  0
 13  8  1  0
M  RGP  2  14   1  15   2
V   14 *
V   15 *
M  END
>  <symbol>  (30)
Asp_piperidide

>  <m_abbr>  (30)
Asp_piperidide

>  <m_type>  (30)
aa

>  <m_subtype>  (30)
non-natural

>  <m_RgroupIdx>  (30)
13,14,None,None

>  <m_Rgroups>  (30)
H,OH,None,None

>  <m_attachmentPointIdx>  (30)
0,3,None,None

>  <natAnalog>  (30)
D

$$$$

     RDKit          2D

 11 10  0  0  0  0  0  0  0  0999 V2000
    7.7942   -0.0000    0.0000 C   0  0  0  0  0  0  0  0  0  0  0  0
    6.4952    0.7500    0.0000 O   0  0  0  0  0  0  0  0  0  0  0  0
    5.1962   -0.0000    0.0000 C   0  0  0  0  0  0  0  0  0  0  0  0
    5.1962   -1.5000    0.0000 O   0  0  0  0  0  0  0  0  0  0  0  0
    3.8971    0.7500    0.0000 C   0  0  0  0  0  0  0  0  0  0  0  0
    2.5981   -0.0000    0.0000 C   0  0  0  0  0  0  0  0  0  0  0  0
    1.2990    0.7500    0.0000 N   0  0  0  0  0  0  0  0  0  0  0  0
    2.5981   -1.5000    0.0000 C   0  0  0  0  0  0  0  0  0  0  0  0
    1.2990   -2.2500    0.0000 O   0  0  0  0  0  0  0  0  0  0  0  0
    0.0000    0.0000    0.0000 R#  0  0  0  0  0  0  0  0  0  0  0  0
    3.8971   -2.2500    0.0000 R#  0  0  0  0  0  0  0  0  0  0  0  0
  1  2  1  0
  2  3  1  0
  3  4  2  0
  3  5  1  0
  6  5  1  1
  6  7  1  0
  7 10  1  0
  6  8  1  0
  8 11  1  0
  8  9  2  0
M  RGP  2  10   1  11   2
V   10 *
V   11 *
M  END
>  <m_name>  (31)
O4-methyl-L-aspartic acid

>  <symbol>  (31)
Asp(OMe)

>  <m_abbr>  (31)
Asp(OMe)

>  <m_type>  (31)
aa

>  <m_subtype>  (31)
non-natural

>  <m_RgroupIdx>  (31)
9,10,None,None

>  <m_Rgroups>  (31)
H,OH,None,None

>  <m_attachmentPointIdx>  (31)
6,7,None,None

>  <natAnalog>  (31)
D

$$$$

     RDKit          2D

 16 16  0  0  0  0  0  0  0  0999 V2000
    6.0000    0.0000    0.0000 N   0  0  0  0  0  0  0  0  0  0  0  0
    5.2500   -1.2990    0.0000 C   0  0  0  0  0  0  0  0  0  0  0  0
    3.7500   -1.2990    0.0000 C   0  0  0  0  0  0  0  0  0  0  0  0
    3.0000    0.0000    0.0000 C   0  0  0  0  0  0  0  0  0  0  0  0
    3.7500    1.2990    0.0000 O   0  0  0  0  0  0  0  0  0  0  0  0
    1.5000    0.0000    0.0000 C   0  0  0  0  0  0  0  0  0  0  0  0
    0.7500   -1.2990    0.0000 C   0  0  0  0  0  0  0  0  0  0  0  0
   -0.7500   -1.2990    0.0000 C   0  0  0  0  0  0  0  0  0  0  0  0
   -1.5000    0.0000    0.0000 C   0  0  0  0  0  0  0  0  0  0  0  0
   -0.7500    1.2990    0.0000 C   0  0  0  0  0  0  0  0  0  0  0  0
    0.7500    1.2990    0.0000 C   0  0  0  0  0  0  0  0  0  0  0  0
    1.5000    2.5981    0.0000 N   0  0  0  0  0  0  0  0  0  0  0  0
    6.0000   -2.5981    0.0000 C   0  0  0  0  0  0  0  0  0  0  0  0
    5.2500   -3.8971    0.0000 O   0  0  0  0  0  0  0  0  0  0  0  0
    7.5000    0.0000    0.0000 R#  0  0  0  0  0  0  0  0  0  0  0  0
    7.5000   -2.5981    0.0000 R#  0  0  0  0  0  0  0  0  0  0  0  0
 15  1  1  0
  1  2  1  0
  2  3  1  6
  3  4  1  0
  4  5  2  0
  4  6  1  0
  6  7  2  0
  7  8  1  0
  8  9  2  0
  9 10  1  0
 10 11  2  0
 11 12  1  0
  2 13  1  0
 13 16  1  0
 13 14  2  0
 11  6  1  0
M  RGP  2  15   1  16   2
V   15 *
V   16 *
M  END
>  <m_name>  (32)
Kynurenine

>  <symbol>  (32)
Asp(Ph(2-NH2))

>  <m_abbr>  (32)
Asp(Ph(2-NH2))

>  <m_type>  (32)
aa

>  <m_subtype>  (32)
non-natural

>  <m_RgroupIdx>  (32)
14,15,None,None

>  <m_Rgroups>  (32)
H,OH,None,None

>  <m_attachmentPointIdx>  (32)
0,12,None,None

>  <natAnalog>  (32)
D

$$$$

     RDKit          2D

 14 14  0  0  0  0  0  0  0  0999 V2000
    5.7760    0.0000    0.0000 N   0  0  0  0  0  0  0  0  0  0  0  0
    5.0260   -1.2990    0.0000 C   0  0  0  0  0  0  0  0  0  0  0  0
    3.5260   -1.2990    0.0000 C   0  0  0  0  0  0  0  0  0  0  0  0
    2.7760    0.0000    0.0000 C   0  0  0  0  0  0  0  0  0  0  0  0
    3.5260    1.2990    0.0000 O   0  0  0  0  0  0  0  0  0  0  0  0
    1.2760    0.0000    0.0000 N   0  0  0  0  0  0  0  0  0  0  0  0
    0.3943    1.2135    0.0000 C   0  0  0  0  0  0  0  0  0  0  0  0
   -1.0323    0.7500    0.0000 C   0  0  0  0  0  0  0  0  0  0  0  0
   -1.0323   -0.7500    0.0000 C   0  0  0  0  0  0  0  0  0  0  0  0
    0.3943   -1.2135    0.0000 C   0  0  0  0  0  0  0  0  0  0  0  0
    5.7760   -2.5981    0.0000 C   0  0  0  0  0  0  0  0  0  0  0  0
    5.0260   -3.8971    0.0000 O   0  0  0  0  0  0  0  0  0  0  0  0
    7.2760    0.0000    0.0000 R#  0  0  0  0  0  0  0  0  0  0  0  0
    7.2760   -2.5981    0.0000 R#  0  0  0  0  0  0  0  0  0  0  0  0
 13  1  1  0
  1  2  1  0
  2  3  1  1
  3  4  1  0
  4  5  2  0
  4  6  1  0
  6  7  1  0
  7  8  1  0
  8  9  1  0
  9 10  1  0
  2 11  1  0
 11 14  1  0
 11 12  2  0
 10  6  1  0
M  RGP  2  13   1  14   2
V   13 *
V   14 *
M  END
>  <m_name>  (33)
4-oxo-4-pyrrol-1-yl-D-homoalanine

>  <symbol>  (33)
dAsp(pyrrol-1-yl)

>  <m_abbr>  (33)
dAsp(pyrrol-1-yl)

>  <m_type>  (33)
aa

>  <m_subtype>  (33)
non-natural

>  <m_RgroupIdx>  (33)
12,13,None,None

>  <m_Rgroups>  (33)
H,OH,None,None

>  <m_attachmentPointIdx>  (33)
0,10,None,None

>  <natAnalog>  (33)
D

$$$$

     RDKit          2D

 11 10  0  0  0  0  0  0  0  0999 V2000
    1.2990    0.7500    0.0000 N   0  0  0  0  0  0  0  0  0  0  0  0
    2.5981   -0.0000    0.0000 C   0  0  0  0  0  0  0  0  0  0  0  0
    3.8971    0.7500    0.0000 C   0  0  0  0  0  0  0  0  0  0  0  0
    5.1962   -0.0000    0.0000 C   0  0  0  0  0  0  0  0  0  0  0  0
    6.4952    0.7500    0.0000 C   0  0  0  0  0  0  0  0  0  0  0  0
    6.4952    2.2500    0.0000 O   0  0  0  0  0  0  0  0  0  0  0  0
    2.5981   -1.5000    0.0000 C   0  0  0  0  0  0  0  0  0  0  0  0
    1.2990   -2.2500    0.0000 O   0  0  0  0  0  0  0  0  0  0  0  0
    0.0000    0.0000    0.0000 R#  0  0  0  0  0  0  0  0  0  0  0  0
    3.8971   -2.2500    0.0000 R#  0  0  0  0  0  0  0  0  0  0  0  0
    7.7942   -0.0000    0.0000 R#  0  0  0  0  0  0  0  0  0  0  0  0
  9  1  1  0
  1  2  1  0
  2  3  1  1
  3  4  1  0
  4  5  1  0
  5 11  1  0
  5  6  2  0
  2  7  1  0
  7 10  1  0
  7  8  2  0
M  RGP  3   9   1  10   2  11   3
V    9 *
V   10 *
V   11 *
M  END
>  <m_name>  (34)
Glutamic acid

>  <symbol>  (34)
E

>  <m_abbr>  (34)
E

>  <m_type>  (34)
aa

>  <m_subtype>  (34)
non-natural

>  <m_RgroupIdx>  (34)
8,9,10,None

>  <m_Rgroups>  (34)
H,OH,OH,None

>  <m_attachmentPointIdx>  (34)
0,6,4,None

>  <natAnalog>  (34)
E

$$$$

     RDKit          2D

 11 10  0  0  0  0  0  0  0  0999 V2000
    1.2990    0.7500    0.0000 N   0  0  0  0  0  0  0  0  0  0  0  0
    2.5981   -0.0000    0.0000 C   0  0  0  0  0  0  0  0  0  0  0  0
    3.8971    0.7500    0.0000 C   0  0  0  0  0  0  0  0  0  0  0  0
    5.1962   -0.0000    0.0000 C   0  0  0  0  0  0  0  0  0  0  0  0
    6.4952    0.7500    0.0000 C   0  0  0  0  0  0  0  0  0  0  0  0
    6.4952    2.2500    0.0000 O   0  0  0  0  0  0  0  0  0  0  0  0
    2.5981   -1.5000    0.0000 C   0  0  0  0  0  0  0  0  0  0  0  0
    3.8971   -2.2500    0.0000 N   0  0  0  0  0  0  0  0  0  0  0  0
    1.2990   -2.2500    0.0000 O   0  0  0  0  0  0  0  0  0  0  0  0
    0.0000    0.0000    0.0000 R#  0  0  0  0  0  0  0  0  0  0  0  0
    7.7942   -0.0000    0.0000 R#  0  0  0  0  0  0  0  0  0  0  0  0
 10  1  1  0
  1  2  1  0
  2  3  1  1
  3  4  1  0
  4  5  1  0
  5 11  1  0
  5  6  2  0
  2  7  1  0
  7  8  1  0
  7  9  2  0
M  RGP  2  10   1  11   2
V   10 *
V   11 *
M  END
>  <m_name>  (35)
Isoglutamine

>  <symbol>  (35)
Glu_NH2

>  <m_abbr>  (35)
Glu_NH2

>  <m_type>  (35)
aa

>  <m_subtype>  (35)
non-natural

>  <m_RgroupIdx>  (35)
9,10,None,None

>  <m_Rgroups>  (35)
H,OH,None,None

>  <m_attachmentPointIdx>  (35)
0,4,None,None

>  <natAnalog>  (35)
E

$$$$

     RDKit          2D

 12 11  0  0  0  0  0  0  0  0999 V2000
    5.1962   -0.0000    0.0000 C   0  0  0  0  0  0  0  0  0  0  0  0
    3.8971    0.7500    0.0000 C   0  0  0  0  0  0  0  0  0  0  0  0
    3.8971    2.2500    0.0000 C   0  0  0  0  0  0  0  0  0  0  0  0
    5.1962    3.0000    0.0000 C   0  0  0  0  0  0  0  0  0  0  0  0
    6.4952    2.2500    0.0000 O   0  0  0  0  0  0  0  0  0  0  0  0
    5.1962    4.5000    0.0000 O   0  0  0  0  0  0  0  0  0  0  0  0
    2.5981   -0.0000    0.0000 C   0  0  0  0  0  0  0  0  0  0  0  0
    1.2990    0.7500    0.0000 N   0  0  0  0  0  0  0  0  0  0  0  0
    2.5981   -1.5000    0.0000 C   0  0  0  0  0  0  0  0  0  0  0  0
    1.2990   -2.2500    0.0000 O   0  0  0  0  0  0  0  0  0  0  0  0
    0.0000    0.0000    0.0000 R#  0  0  0  0  0  0  0  0  0  0  0  0
    3.8971   -2.2500    0.0000 R#  0  0  0  0  0  0  0  0  0  0  0  0
  2  1  1  1
  2  3  1  0
  3  4  1  0
  4  5  2  0
  4  6  1  0
  2  7  1  0
  7  8  1  1
  8 11  1  0
  7  9  1  0
  9 12  1  0
  9 10  2  0
M  RGP  2  11   1  12   2
V   11 *
V   12 *
M  END
>  <m_name>  (36)
(3r)-3-methyl-L-glutamic acid

>  <symbol>  (36)
Glu(3R-Me)

>  <m_abbr>  (36)
Glu(3R-Me)

>  <m_type>  (36)
aa

>  <m_subtype>  (36)
non-natural

>  <m_RgroupIdx>  (36)
10,11,None,None

>  <m_Rgroups>  (36)
H,OH,None,None

>  <m_attachmentPointIdx>  (36)
7,8,None,None

>  <natAnalog>  (36)
E

$$$$

     RDKit          2D

 12 11  0  0  0  0  0  0  0  0999 V2000
    9.0933    0.7500    0.0000 C   0  0  0  0  0  0  0  0  0  0  0  0
    7.7942   -0.0000    0.0000 O   0  0  0  0  0  0  0  0  0  0  0  0
    6.4952    0.7500    0.0000 C   0  0  0  0  0  0  0  0  0  0  0  0
    6.4952    2.2500    0.0000 O   0  0  0  0  0  0  0  0  0  0  0  0
    5.1962   -0.0000    0.0000 C   0  0  0  0  0  0  0  0  0  0  0  0
    3.8971    0.7500    0.0000 C   0  0  0  0  0  0  0  0  0  0  0  0
    2.5981   -0.0000    0.0000 C   0  0  0  0  0  0  0  0  0  0  0  0
    1.2990    0.7500    0.0000 N   0  0  0  0  0  0  0  0  0  0  0  0
    2.5981   -1.5000    0.0000 C   0  0  0  0  0  0  0  0  0  0  0  0
    1.2990   -2.2500    0.0000 O   0  0  0  0  0  0  0  0  0  0  0  0
    0.0000    0.0000    0.0000 R#  0  0  0  0  0  0  0  0  0  0  0  0
    3.8971   -2.2500    0.0000 R#  0  0  0  0  0  0  0  0  0  0  0  0
  1  2  1  0
  2  3  1  0
  3  4  2  0
  3  5  1  0
  5  6  1  0
  7  6  1  1
  7  8  1  0
  8 11  1  0
  7  9  1  0
  9 12  1  0
  9 10  2  0
M  RGP  2  11   1  12   2
V   11 *
V   12 *
M  END
>  <m_name>  (37)
5-methyl-L-glutamate

>  <symbol>  (37)
Glu(OMe)

>  <m_abbr>  (37)
Glu(OMe)

>  <m_type>  (37)
aa

>  <m_subtype>  (37)
non-natural

>  <m_RgroupIdx>  (37)
10,11,None,None

>  <m_Rgroups>  (37)
H,OH,None,None

>  <m_attachmentPointIdx>  (37)
7,8,None,None

>  <natAnalog>  (37)
E

$$$$

     RDKit          2D

 12 11  0  0  0  0  0  0  0  0999 V2000
    9.0933    0.7500    0.0000 C   0  0  0  0  0  0  0  0  0  0  0  0
    7.7942   -0.0000    0.0000 O   0  0  0  0  0  0  0  0  0  0  0  0
    6.4952    0.7500    0.0000 C   0  0  0  0  0  0  0  0  0  0  0  0
    6.4952    2.2500    0.0000 O   0  0  0  0  0  0  0  0  0  0  0  0
    5.1962   -0.0000    0.0000 C   0  0  0  0  0  0  0  0  0  0  0  0
    3.8971    0.7500    0.0000 C   0  0  0  0  0  0  0  0  0  0  0  0
    2.5981   -0.0000    0.0000 C   0  0  0  0  0  0  0  0  0  0  0  0
    1.2990    0.7500    0.0000 N   0  0  0  0  0  0  0  0  0  0  0  0
    2.5981   -1.5000    0.0000 C   0  0  0  0  0  0  0  0  0  0  0  0
    1.2990   -2.2500    0.0000 O   0  0  0  0  0  0  0  0  0  0  0  0
    0.0000    0.0000    0.0000 R#  0  0  0  0  0  0  0  0  0  0  0  0
    3.8971   -2.2500    0.0000 R#  0  0  0  0  0  0  0  0  0  0  0  0
  1  2  1  0
  2  3  1  0
  3  4  2  0
  3  5  1  0
  5  6  1  0
  7  6  1  6
  7  8  1  0
  8 11  1  0
  7  9  1  0
  9 12  1  0
  9 10  2  0
M  RGP  2  11   1  12   2
V   11 *
V   12 *
M  END
>  <m_name>  (38)
5-methyl-D-glutamate

>  <symbol>  (38)
dGlu(OMe)

>  <m_abbr>  (38)
dGlu(OMe)

>  <m_type>  (38)
aa

>  <m_subtype>  (38)
non-natural

>  <m_RgroupIdx>  (38)
10,11,None,None

>  <m_Rgroups>  (38)
H,OH,None,None

>  <m_attachmentPointIdx>  (38)
7,8,None,None

>  <natAnalog>  (38)
E

$$$$

     RDKit          2D

 13 13  0  0  0  0  0  0  0  0999 V2000
    3.0000   -2.5981    0.0000 N   0  0  0  0  0  0  0  0  0  0  0  0
    3.7500   -1.2990    0.0000 C   0  0  0  0  0  0  0  0  0  0  0  0
    3.0000    0.0000    0.0000 C   0  0  0  0  0  0  0  0  0  0  0  0
    1.5000    0.0000    0.0000 C   0  0  0  0  0  0  0  0  0  0  0  0
    0.7500   -1.2990    0.0000 C   0  0  0  0  0  0  0  0  0  0  0  0
   -0.7500   -1.2990    0.0000 C   0  0  0  0  0  0  0  0  0  0  0  0
   -1.5000    0.0000    0.0000 C   0  0  0  0  0  0  0  0  0  0  0  0
   -0.7500    1.2990    0.0000 C   0  0  0  0  0  0  0  0  0  0  0  0
    0.7500    1.2990    0.0000 C   0  0  0  0  0  0  0  0  0  0  0  0
    5.2500   -1.2990    0.0000 C   0  0  0  0  0  0  0  0  0  0  0  0
    6.0000    0.0000    0.0000 O   0  0  0  0  0  0  0  0  0  0  0  0
    3.7500   -3.8971    0.0000 R#  0  0  0  0  0  0  0  0  0  0  0  0
    6.0000   -2.5981    0.0000 R#  0  0  0  0  0  0  0  0  0  0  0  0
 12  1  1  0
  1  2  1  0
  2  3  1  1
  3  4  1  0
  4  5  2  0
  5  6  1  0
  6  7  2  0
  7  8  1  0
  8  9  2  0
  2 10  1  0
 10 13  1  0
 10 11  2  0
  9  4  1  0
M  RGP  2  12   1  13   2
V   12 *
V   13 *
M  END
>  <m_name>  (39)
Phenylalanine

>  <symbol>  (39)
F

>  <m_abbr>  (39)
F

>  <m_type>  (39)
aa

>  <m_subtype>  (39)
non-natural

>  <m_RgroupIdx>  (39)
11,12,None,None

>  <m_Rgroups>  (39)
H,OH,None,None

>  <m_attachmentPointIdx>  (39)
0,9,None,None

>  <natAnalog>  (39)
F

$$$$

     RDKit          2D

 13 13  0  0  0  0  0  0  0  0999 V2000
    3.0000   -2.5981    0.0000 N   0  0  0  0  0  0  0  0  0  0  0  0
    3.7500   -1.2990    0.0000 C   0  0  0  0  0  0  0  0  0  0  0  0
    3.0000    0.0000    0.0000 C   0  0  0  0  0  0  0  0  0  0  0  0
    1.5000    0.0000    0.0000 C   0  0  0  0  0  0  0  0  0  0  0  0
    0.7500   -1.2990    0.0000 C   0  0  0  0  0  0  0  0  0  0  0  0
   -0.7500   -1.2990    0.0000 C   0  0  0  0  0  0  0  0  0  0  0  0
   -1.5000    0.0000    0.0000 C   0  0  0  0  0  0  0  0  0  0  0  0
   -0.7500    1.2990    0.0000 C   0  0  0  0  0  0  0  0  0  0  0  0
    0.7500    1.2990    0.0000 C   0  0  0  0  0  0  0  0  0  0  0  0
    5.2500   -1.2990    0.0000 C   0  0  0  0  0  0  0  0  0  0  0  0
    6.0000    0.0000    0.0000 O   0  0  0  0  0  0  0  0  0  0  0  0
    3.7500   -3.8971    0.0000 R#  0  0  0  0  0  0  0  0  0  0  0  0
    6.0000   -2.5981    0.0000 R#  0  0  0  0  0  0  0  0  0  0  0  0
 12  1  1  0
  1  2  1  0
  2  3  1  6
  3  4  1  0
  4  5  2  0
  5  6  1  0
  6  7  2  0
  7  8  1  0
  8  9  2  0
  2 10  1  0
 10 13  1  0
 10 11  2  0
  9  4  1  0
M  RGP  2  12   1  13   2
V   12 *
V   13 *
M  END
>  <m_name>  (40)
D-phenylalanine

>  <symbol>  (40)
dF

>  <m_abbr>  (40)
dF

>  <m_type>  (40)
aa

>  <m_subtype>  (40)
non-natural

>  <m_RgroupIdx>  (40)
11,12,None,None

>  <m_Rgroups>  (40)
H,OH,None,None

>  <m_attachmentPointIdx>  (40)
0,9,None,None

>  <natAnalog>  (40)
F

$$$$

     RDKit          2D

 14 14  0  0  0  0  0  0  0  0999 V2000
    1.5000   -2.5981    0.0000 C   0  0  0  0  0  0  0  0  0  0  0  0
    3.0000   -2.5981    0.0000 N   0  0  0  0  0  0  0  0  0  0  0  0
    3.7500   -1.2990    0.0000 C   0  0  0  0  0  0  0  0  0  0  0  0
    3.0000    0.0000    0.0000 C   0  0  0  0  0  0  0  0  0  0  0  0
    1.5000    0.0000    0.0000 C   0  0  0  0  0  0  0  0  0  0  0  0
    0.7500   -1.2990    0.0000 C   0  0  0  0  0  0  0  0  0  0  0  0
   -0.7500   -1.2990    0.0000 C   0  0  0  0  0  0  0  0  0  0  0  0
   -1.5000    0.0000    0.0000 C   0  0  0  0  0  0  0  0  0  0  0  0
   -0.7500    1.2990    0.0000 C   0  0  0  0  0  0  0  0  0  0  0  0
    0.7500    1.2990    0.0000 C   0  0  0  0  0  0  0  0  0  0  0  0
    5.2500   -1.2990    0.0000 C   0  0  0  0  0  0  0  0  0  0  0  0
    6.0000    0.0000    0.0000 O   0  0  0  0  0  0  0  0  0  0  0  0
    3.7500   -3.8971    0.0000 R#  0  0  0  0  0  0  0  0  0  0  0  0
    6.0000   -2.5981    0.0000 R#  0  0  0  0  0  0  0  0  0  0  0  0
  1  2  1  0
  2 13  1  0
  2  3  1  0
  3  4  1  1
  4  5  1  0
  5  6  2  0
  6  7  1  0
  7  8  2  0
  8  9  1  0
  9 10  2  0
  3 11  1  0
 11 14  1  0
 11 12  2  0
 10  5  1  0
M  RGP  2  13   1  14   2
V   13 *
V   14 *
M  END
>  <m_name>  (41)
N-methyl-L-phenylalanine

>  <symbol>  (41)
meF

>  <m_abbr>  (41)
meF

>  <m_type>  (41)
aa

>  <m_subtype>  (41)
non-natural

>  <m_RgroupIdx>  (41)
12,13,None,None

>  <m_Rgroups>  (41)
H,OH,None,None

>  <m_attachmentPointIdx>  (41)
1,10,None,None

>  <natAnalog>  (41)
F

$$$$

     RDKit          2D

 14 14  0  0  0  0  0  0  0  0999 V2000
    1.5000   -2.5981    0.0000 C   0  0  0  0  0  0  0  0  0  0  0  0
    3.0000   -2.5981    0.0000 N   0  0  0  0  0  0  0  0  0  0  0  0
    3.7500   -1.2990    0.0000 C   0  0  0  0  0  0  0  0  0  0  0  0
    3.0000    0.0000    0.0000 C   0  0  0  0  0  0  0  0  0  0  0  0
    1.5000    0.0000    0.0000 C   0  0  0  0  0  0  0  0  0  0  0  0
    0.7500   -1.2990    0.0000 C   0  0  0  0  0  0  0  0  0  0  0  0
   -0.7500   -1.2990    0.0000 C   0  0  0  0  0  0  0  0  0  0  0  0
   -1.5000    0.0000    0.0000 C   0  0  0  0  0  0  0  0  0  0  0  0
   -0.7500    1.2990    0.0000 C   0  0  0  0  0  0  0  0  0  0  0  0
    0.7500    1.2990    0.0000 C   0  0  0  0  0  0  0  0  0  0  0  0
    5.2500   -1.2990    0.0000 C   0  0  0  0  0  0  0  0  0  0  0  0
    6.0000    0.0000    0.0000 O   0  0  0  0  0  0  0  0  0  0  0  0
    3.7500   -3.8971    0.0000 R#  0  0  0  0  0  0  0  0  0  0  0  0
    6.0000   -2.5981    0.0000 R#  0  0  0  0  0  0  0  0  0  0  0  0
  1  2  1  0
  2 13  1  0
  2  3  1  0
  3  4  1  6
  4  5  1  0
  5  6  2  0
  6  7  1  0
  7  8  2  0
  8  9  1  0
  9 10  2  0
  3 11  1  0
 11 14  1  0
 11 12  2  0
 10  5  1  0
M  RGP  2  13   1  14   2
V   13 *
V   14 *
M  END
>  <m_name>  (42)
N-methyl-D-phenylalanine

>  <symbol>  (42)
Me_dF

>  <m_abbr>  (42)
Me_dF

>  <m_type>  (42)
aa

>  <m_subtype>  (42)
non-natural

>  <m_RgroupIdx>  (42)
12,13,None,None

>  <m_Rgroups>  (42)
H,OH,None,None

>  <m_attachmentPointIdx>  (42)
1,10,None,None

>  <natAnalog>  (42)
F

$$$$

     RDKit          2D

 14 14  0  0  0  0  0  0  0  0999 V2000
    3.0000    0.0000    0.0000 F   0  0  0  0  0  0  0  0  0  0  0  0
    1.5000    0.0000    0.0000 C   0  0  0  0  0  0  0  0  0  0  0  0
    0.7500   -1.2990    0.0000 C   0  0  0  0  0  0  0  0  0  0  0  0
   -0.7500   -1.2990    0.0000 C   0  0  0  0  0  0  0  0  0  0  0  0
   -1.5000    0.0000    0.0000 C   0  0  0  0  0  0  0  0  0  0  0  0
   -3.0000    0.0000    0.0000 C   0  0  0  0  0  0  0  0  0  0  0  0
   -3.7500    1.2990    0.0000 C   0  0  0  0  0  0  0  0  0  0  0  0
   -3.0000    2.5981    0.0000 N   0  0  0  0  0  0  0  0  0  0  0  0
   -5.2500    1.2990    0.0000 C   0  0  0  0  0  0  0  0  0  0  0  0
   -6.0000   -0.0000    0.0000 O   0  0  0  0  0  0  0  0  0  0  0  0
   -0.7500    1.2990    0.0000 C   0  0  0  0  0  0  0  0  0  0  0  0
    0.7500    1.2990    0.0000 C   0  0  0  0  0  0  0  0  0  0  0  0
   -3.7500    3.8971    0.0000 R#  0  0  0  0  0  0  0  0  0  0  0  0
   -6.0000    2.5981    0.0000 R#  0  0  0  0  0  0  0  0  0  0  0  0
  1  2  1  0
  2  3  2  0
  3  4  1  0
  4  5  2  0
  5  6  1  0
  7  6  1  1
  7  8  1  0
  8 13  1  0
  7  9  1  0
  9 14  1  0
  9 10  2  0
  5 11  1  0
 11 12  2  0
 12  2  1  0
M  RGP  2  13   1  14   2
V   13 *
V   14 *
M  END
>  <m_name>  (43)
4-fluoro-L-phenylalanine

>  <symbol>  (43)
Phe(4-F)

>  <m_abbr>  (43)
Phe(4-F)

>  <m_type>  (43)
aa

>  <m_subtype>  (43)
non-natural

>  <m_RgroupIdx>  (43)
12,13,None,None

>  <m_Rgroups>  (43)
H,OH,None,None

>  <m_attachmentPointIdx>  (43)
7,8,None,None

>  <natAnalog>  (43)
F

$$$$

     RDKit          2D

 14 14  0  0  0  0  0  0  0  0999 V2000
    3.0000    0.0000    0.0000 F   0  0  0  0  0  0  0  0  0  0  0  0
    1.5000    0.0000    0.0000 C   0  0  0  0  0  0  0  0  0  0  0  0
    0.7500   -1.2990    0.0000 C   0  0  0  0  0  0  0  0  0  0  0  0
   -0.7500   -1.2990    0.0000 C   0  0  0  0  0  0  0  0  0  0  0  0
   -1.5000    0.0000    0.0000 C   0  0  0  0  0  0  0  0  0  0  0  0
   -3.0000    0.0000    0.0000 C   0  0  0  0  0  0  0  0  0  0  0  0
   -3.7500    1.2990    0.0000 C   0  0  0  0  0  0  0  0  0  0  0  0
   -3.0000    2.5981    0.0000 N   0  0  0  0  0  0  0  0  0  0  0  0
   -5.2500    1.2990    0.0000 C   0  0  0  0  0  0  0  0  0  0  0  0
   -6.0000   -0.0000    0.0000 O   0  0  0  0  0  0  0  0  0  0  0  0
   -0.7500    1.2990    0.0000 C   0  0  0  0  0  0  0  0  0  0  0  0
    0.7500    1.2990    0.0000 C   0  0  0  0  0  0  0  0  0  0  0  0
   -3.7500    3.8971    0.0000 R#  0  0  0  0  0  0  0  0  0  0  0  0
   -6.0000    2.5981    0.0000 R#  0  0  0  0  0  0  0  0  0  0  0  0
  1  2  1  0
  2  3  2  0
  3  4  1  0
  4  5  2  0
  5  6  1  0
  7  6  1  6
  7  8  1  0
  8 13  1  0
  7  9  1  0
  9 14  1  0
  9 10  2  0
  5 11  1  0
 11 12  2  0
 12  2  1  0
M  RGP  2  13   1  14   2
V   13 *
V   14 *
M  END
>  <m_name>  (44)
4-fluoro-D-phenylalanine

>  <symbol>  (44)
dPhe(4-F)

>  <m_abbr>  (44)
dPhe(4-F)

>  <m_type>  (44)
aa

>  <m_subtype>  (44)
non-natural

>  <m_RgroupIdx>  (44)
12,13,None,None

>  <m_Rgroups>  (44)
H,OH,None,None

>  <m_attachmentPointIdx>  (44)
7,8,None,None

>  <natAnalog>  (44)
F

$$$$

     RDKit          2D

 17 17  0  0  0  0  0  0  0  0999 V2000
    4.5000    0.0000    0.0000 F   0  0  0  0  0  0  0  0  0  0  0  0
    3.0000    0.0000    0.0000 C   0  0  0  0  0  0  0  0  0  0  0  0
    3.0000   -1.5000    0.0000 F   0  0  0  0  0  0  0  0  0  0  0  0
    3.0000    1.5000    0.0000 F   0  0  0  0  0  0  0  0  0  0  0  0
    1.5000    0.0000    0.0000 C   0  0  0  0  0  0  0  0  0  0  0  0
    0.7500   -1.2990    0.0000 C   0  0  0  0  0  0  0  0  0  0  0  0
   -0.7500   -1.2990    0.0000 C   0  0  0  0  0  0  0  0  0  0  0  0
   -1.5000    0.0000    0.0000 C   0  0  0  0  0  0  0  0  0  0  0  0
   -3.0000    0.0000    0.0000 C   0  0  0  0  0  0  0  0  0  0  0  0
   -3.7500    1.2990    0.0000 C   0  0  0  0  0  0  0  0  0  0  0  0
   -3.0000    2.5981    0.0000 N   0  0  0  0  0  0  0  0  0  0  0  0
   -5.2500    1.2990    0.0000 C   0  0  0  0  0  0  0  0  0  0  0  0
   -6.0000   -0.0000    0.0000 O   0  0  0  0  0  0  0  0  0  0  0  0
   -0.7500    1.2990    0.0000 C   0  0  0  0  0  0  0  0  0  0  0  0
    0.7500    1.2990    0.0000 C   0  0  0  0  0  0  0  0  0  0  0  0
   -3.7500    3.8971    0.0000 R#  0  0  0  0  0  0  0  0  0  0  0  0
   -6.0000    2.5981    0.0000 R#  0  0  0  0  0  0  0  0  0  0  0  0
  1  2  1  0
  2  3  1  0
  2  4  1  0
  2  5  1  0
  5  6  2  0
  6  7  1  0
  7  8  2  0
  8  9  1  0
 10  9  1  1
 10 11  1  0
 11 16  1  0
 10 12  1  0
 12 17  1  0
 12 13  2  0
  8 14  1  0
 14 15  2  0
 15  5  1  0
M  RGP  2  16   1  17   2
V   16 *
V   17 *
M  END
>  <m_name>  (45)
4-(trifluoromethyl)-L-phenylalanine

>  <symbol>  (45)
Phe(4-CF3)

>  <m_abbr>  (45)
Phe(4-CF3)

>  <m_type>  (45)
aa

>  <m_subtype>  (45)
non-natural

>  <m_RgroupIdx>  (45)
15,16,None,None

>  <m_Rgroups>  (45)
H,OH,None,None

>  <m_attachmentPointIdx>  (45)
10,11,None,None

>  <natAnalog>  (45)
F

$$$$

     RDKit          2D

 16 16  0  0  0  0  0  0  0  0999 V2000
    3.0000   -2.5981    0.0000 N   0  0  0  0  0  0  0  0  0  0  0  0
    3.7500   -1.2990    0.0000 C   0  0  0  0  0  0  0  0  0  0  0  0
    3.0000    0.0000    0.0000 C   0  0  0  0  0  0  0  0  0  0  0  0
    1.5000    0.0000    0.0000 C   0  0  0  0  0  0  0  0  0  0  0  0
    0.7500   -1.2990    0.0000 C   0  0  0  0  0  0  0  0  0  0  0  0
   -0.7500   -1.2990    0.0000 C   0  0  0  0  0  0  0  0  0  0  0  0
   -1.5000    0.0000    0.0000 C   0  0  0  0  0  0  0  0  0  0  0  0
   -0.7500    1.2990    0.0000 C   0  0  0  0  0  0  0  0  0  0  0  0
    0.7500    1.2990    0.0000 C   0  0  0  0  0  0  0  0  0  0  0  0
   -3.0000    0.0000    0.0000 N   0  0  0  0  0  0  0  0  0  0  0  0
   -3.7500    1.2990    0.0000 O   0  0  0  0  0  0  0  0  0  0  0  0
   -3.7500   -1.2990    0.0000 O   0  0  0  0  0  0  0  0  0  0  0  0
    5.2500   -1.2990    0.0000 C   0  0  0  0  0  0  0  0  0  0  0  0
    6.0000    0.0000    0.0000 O   0  0  0  0  0  0  0  0  0  0  0  0
    3.7500   -3.8971    0.0000 R#  0  0  0  0  0  0  0  0  0  0  0  0
    6.0000   -2.5981    0.0000 R#  0  0  0  0  0  0  0  0  0  0  0  0
 15  1  1  0
  1  2  1  0
  2  3  1  1
  3  4  1  0
  4  5  2  0
  5  6  1  0
  6  7  2  0
  7  8  1  0
  8  9  2  0
  7 10  1  0
 10 11  1  0
 10 12  2  0
  2 13  1  0
 13 16  1  0
 13 14  2  0
  9  4  1  0
M  CHG  2  10   1  11  -1
M  RGP  2  15   1  16   2
V   15 *
V   16 *
M  END
>  <m_name>  (46)
4-nitro-L-phenylalanine

>  <symbol>  (46)
Phe(4-NO2)

>  <m_abbr>  (46)
Phe(4-NO2)

>  <m_type>  (46)
aa

>  <m_subtype>  (46)
non-natural

>  <m_RgroupIdx>  (46)
14,15,None,None

>  <m_Rgroups>  (46)
H,OH,None,None

>  <m_attachmentPointIdx>  (46)
0,12,None,None

>  <natAnalog>  (46)
F

$$$$

     RDKit          2D

 16 16  0  0  0  0  0  0  0  0999 V2000
    3.0000   -2.5981    0.0000 N   0  0  0  0  0  0  0  0  0  0  0  0
    3.7500   -1.2990    0.0000 C   0  0  0  0  0  0  0  0  0  0  0  0
    3.0000    0.0000    0.0000 C   0  0  0  0  0  0  0  0  0  0  0  0
    1.5000    0.0000    0.0000 C   0  0  0  0  0  0  0  0  0  0  0  0
    0.7500   -1.2990    0.0000 C   0  0  0  0  0  0  0  0  0  0  0  0
   -0.7500   -1.2990    0.0000 C   0  0  0  0  0  0  0  0  0  0  0  0
   -1.5000    0.0000    0.0000 C   0  0  0  0  0  0  0  0  0  0  0  0
   -3.0000    0.0000    0.0000 C   0  0  0  0  0  0  0  0  0  0  0  0
   -3.7500    1.2990    0.0000 F   0  0  0  0  0  0  0  0  0  0  0  0
   -3.7500   -1.2990    0.0000 F   0  0  0  0  0  0  0  0  0  0  0  0
   -0.7500    1.2990    0.0000 C   0  0  0  0  0  0  0  0  0  0  0  0
    0.7500    1.2990    0.0000 C   0  0  0  0  0  0  0  0  0  0  0  0
    5.2500   -1.2990    0.0000 C   0  0  0  0  0  0  0  0  0  0  0  0
    6.0000    0.0000    0.0000 O   0  0  0  0  0  0  0  0  0  0  0  0
    3.7500   -3.8971    0.0000 R#  0  0  0  0  0  0  0  0  0  0  0  0
    6.0000   -2.5981    0.0000 R#  0  0  0  0  0  0  0  0  0  0  0  0
 15  1  1  0
  1  2  1  0
  2  3  1  1
  3  4  1  0
  4  5  2  0
  5  6  1  0
  6  7  2  0
  7  8  1  0
  8  9  1  0
  8 10  1  0
  7 11  1  0
 11 12  2  0
  2 13  1  0
 13 16  1  0
 13 14  2  0
 12  4  1  0
M  RGP  2  15   1  16   2
V   15 *
V   16 *
M  END
>  <m_name>  (47)
4-(difluoromethyl)-L-phenylalanine

>  <symbol>  (47)
Phe(CHF2)

>  <m_abbr>  (47)
Phe(CHF2)

>  <m_type>  (47)
aa

>  <m_subtype>  (47)
non-natural

>  <m_RgroupIdx>  (47)
14,15,None,None

>  <m_Rgroups>  (47)
H,OH,None,None

>  <m_attachmentPointIdx>  (47)
0,12,None,None

>  <natAnalog>  (47)
F

$$$$

     RDKit          2D

 15 15  0  0  0  0  0  0  0  0999 V2000
    3.0000    0.0000    0.0000 F   0  0  0  0  0  0  0  0  0  0  0  0
    1.5000    0.0000    0.0000 C   0  0  0  0  0  0  0  0  0  0  0  0
    0.7500   -1.2990    0.0000 C   0  0  0  0  0  0  0  0  0  0  0  0
   -0.7500   -1.2990    0.0000 C   0  0  0  0  0  0  0  0  0  0  0  0
   -1.5000    0.0000    0.0000 C   0  0  0  0  0  0  0  0  0  0  0  0
   -3.0000    0.0000    0.0000 C   0  0  0  0  0  0  0  0  0  0  0  0
   -3.7500    1.2990    0.0000 C   0  0  0  0  0  0  0  0  0  0  0  0
   -3.0000    2.5981    0.0000 N   0  0  0  0  0  0  0  0  0  0  0  0
   -5.2500    1.2990    0.0000 C   0  0  0  0  0  0  0  0  0  0  0  0
   -6.0000   -0.0000    0.0000 O   0  0  0  0  0  0  0  0  0  0  0  0
   -0.7500    1.2990    0.0000 C   0  0  0  0  0  0  0  0  0  0  0  0
    0.7500    1.2990    0.0000 C   0  0  0  0  0  0  0  0  0  0  0  0
    1.5000    2.5981    0.0000 F   0  0  0  0  0  0  0  0  0  0  0  0
   -3.7500    3.8971    0.0000 R#  0  0  0  0  0  0  0  0  0  0  0  0
   -6.0000    2.5981    0.0000 R#  0  0  0  0  0  0  0  0  0  0  0  0
  1  2  1  0
  2  3  2  0
  3  4  1  0
  4  5  2  0
  5  6  1  0
  7  6  1  6
  7  8  1  0
  8 14  1  0
  7  9  1  0
  9 15  1  0
  9 10  2  0
  5 11  1  0
 11 12  2  0
 12 13  1  0
 12  2  1  0
M  RGP  2  14   1  15   2
V   14 *
V   15 *
M  END
>  <m_name>  (48)
3,4-difluoro-D-phenylalanine

>  <symbol>  (48)
dPhe(3,4-diF)

>  <m_abbr>  (48)
dPhe(3,4-diF)

>  <m_type>  (48)
aa

>  <m_subtype>  (48)
non-natural

>  <m_RgroupIdx>  (48)
13,14,None,None

>  <m_Rgroups>  (48)
H,OH,None,None

>  <m_attachmentPointIdx>  (48)
7,8,None,None

>  <natAnalog>  (48)
F

$$$$

     RDKit          2D

 15 15  0  0  0  0  0  0  0  0999 V2000
    0.7500   -3.8971    0.0000 C   0  0  0  0  0  0  0  0  0  0  0  0
    1.5000   -2.5981    0.0000 C   0  0  0  0  0  0  0  0  0  0  0  0
    3.0000   -2.5981    0.0000 N   0  0  0  0  0  0  0  0  0  0  0  0
    3.7500   -1.2990    0.0000 C   0  0  0  0  0  0  0  0  0  0  0  0
    3.0000    0.0000    0.0000 C   0  0  0  0  0  0  0  0  0  0  0  0
    1.5000    0.0000    0.0000 C   0  0  0  0  0  0  0  0  0  0  0  0
    0.7500   -1.2990    0.0000 C   0  0  0  0  0  0  0  0  0  0  0  0
   -0.7500   -1.2990    0.0000 C   0  0  0  0  0  0  0  0  0  0  0  0
   -1.5000    0.0000    0.0000 C   0  0  0  0  0  0  0  0  0  0  0  0
   -0.7500    1.2990    0.0000 C   0  0  0  0  0  0  0  0  0  0  0  0
    0.7500    1.2990    0.0000 C   0  0  0  0  0  0  0  0  0  0  0  0
    5.2500   -1.2990    0.0000 C   0  0  0  0  0  0  0  0  0  0  0  0
    6.0000    0.0000    0.0000 O   0  0  0  0  0  0  0  0  0  0  0  0
    3.7500   -3.8971    0.0000 R#  0  0  0  0  0  0  0  0  0  0  0  0
    6.0000   -2.5981    0.0000 R#  0  0  0  0  0  0  0  0  0  0  0  0
  1  2  1  0
  2  3  1  0
  3 14  1  0
  3  4  1  0
  4  5  1  1
  5  6  1  0
  6  7  2  0
  7  8  1  0
  8  9  2  0
  9 10  1  0
 10 11  2  0
  4 12  1  0
 12 15  1  0
 12 13  2  0
 11  6  1  0
M  RGP  2  14   1  15   2
V   14 *
V   15 *
M  END
>  <m_name>  (49)
N-ethyl-L-phenylalanine

>  <symbol>  (49)
Et_Phe

>  <m_abbr>  (49)
Et_Phe

>  <m_type>  (49)
aa

>  <m_subtype>  (49)
non-natural

>  <m_RgroupIdx>  (49)
13,14,None,None

>  <m_Rgroups>  (49)
H,OH,None,None

>  <m_attachmentPointIdx>  (49)
2,11,None,None

>  <natAnalog>  (49)
F

$$$$

     RDKit          2D

 16 16  0  0  0  0  0  0  0  0999 V2000
    3.7500   -6.4952    0.0000 N   0  0  0  0  0  0  0  0  0  0  0  0
    3.0000   -5.1962    0.0000 C   0  0  0  0  0  0  0  0  0  0  0  0
    3.7500   -3.8971    0.0000 C   0  0  0  0  0  0  0  0  0  0  0  0
    3.0000   -2.5981    0.0000 N   0  0  0  0  0  0  0  0  0  0  0  0
    3.7500   -1.2990    0.0000 C   0  0  0  0  0  0  0  0  0  0  0  0
    3.0000    0.0000    0.0000 C   0  0  0  0  0  0  0  0  0  0  0  0
    1.5000    0.0000    0.0000 C   0  0  0  0  0  0  0  0  0  0  0  0
    0.7500   -1.2990    0.0000 C   0  0  0  0  0  0  0  0  0  0  0  0
   -0.7500   -1.2990    0.0000 C   0  0  0  0  0  0  0  0  0  0  0  0
   -1.5000    0.0000    0.0000 C   0  0  0  0  0  0  0  0  0  0  0  0
   -0.7500    1.2990    0.0000 C   0  0  0  0  0  0  0  0  0  0  0  0
    0.7500    1.2990    0.0000 C   0  0  0  0  0  0  0  0  0  0  0  0
    5.2500   -1.2990    0.0000 C   0  0  0  0  0  0  0  0  0  0  0  0
    6.0000    0.0000    0.0000 O   0  0  0  0  0  0  0  0  0  0  0  0
    3.0000   -7.7942    0.0000 R#  0  0  0  0  0  0  0  0  0  0  0  0
    6.0000   -2.5981    0.0000 R#  0  0  0  0  0  0  0  0  0  0  0  0
 15  1  1  0
  1  2  1  0
  2  3  1  0
  3  4  1  0
  4  5  1  0
  5  6  1  1
  6  7  1  0
  7  8  2  0
  8  9  1  0
  9 10  2  0
 10 11  1  0
 11 12  2  0
  5 13  1  0
 13 16  1  0
 13 14  2  0
 12  7  1  0
M  RGP  2  15   1  16   2
V   15 *
V   16 *
M  END
>  <m_name>  (50)
N-(2-aminoethyl)-L-phenylalanine

>  <symbol>  (50)
H2NEt_Phe

>  <m_abbr>  (50)
H2NEt_Phe

>  <m_type>  (50)
aa

>  <m_subtype>  (50)
non-natural

>  <m_RgroupIdx>  (50)
14,15,None,None

>  <m_Rgroups>  (50)
H,OH,None,None

>  <m_attachmentPointIdx>  (50)
0,12,None,None

>  <natAnalog>  (50)
F

$$$$

     RDKit          2D

 15 15  0  0  0  0  0  0  0  0999 V2000
    1.5000   -2.5981    0.0000 C   0  0  0  0  0  0  0  0  0  0  0  0
    3.0000   -2.5981    0.0000 N   0  0  0  0  0  0  0  0  0  0  0  0
    3.7500   -1.2990    0.0000 C   0  0  0  0  0  0  0  0  0  0  0  0
    3.0000    0.0000    0.0000 C   0  0  0  0  0  0  0  0  0  0  0  0
    1.5000    0.0000    0.0000 C   0  0  0  0  0  0  0  0  0  0  0  0
    0.7500   -1.2990    0.0000 C   0  0  0  0  0  0  0  0  0  0  0  0
   -0.7500   -1.2990    0.0000 C   0  0  0  0  0  0  0  0  0  0  0  0
   -1.5000    0.0000    0.0000 C   0  0  0  0  0  0  0  0  0  0  0  0
   -0.7500    1.2990    0.0000 C   0  0  0  0  0  0  0  0  0  0  0  0
   -1.5000    2.5981    0.0000 Cl  0  0  0  0  0  0  0  0  0  0  0  0
    0.7500    1.2990    0.0000 C   0  0  0  0  0  0  0  0  0  0  0  0
    5.2500   -1.2990    0.0000 C   0  0  0  0  0  0  0  0  0  0  0  0
    6.0000    0.0000    0.0000 O   0  0  0  0  0  0  0  0  0  0  0  0
    3.7500   -3.8971    0.0000 R#  0  0  0  0  0  0  0  0  0  0  0  0
    6.0000   -2.5981    0.0000 R#  0  0  0  0  0  0  0  0  0  0  0  0
  1  2  1  0
  2 14  1  0
  2  3  1  0
  3  4  1  1
  4  5  1  0
  5  6  2  0
  6  7  1  0
  7  8  2  0
  8  9  1  0
  9 10  1  0
  9 11  2  0
  3 12  1  0
 12 15  1  0
 12 13  2  0
 11  5  1  0
M  RGP  2  14   1  15   2
V   14 *
V   15 *
M  END
>  <m_name>  (51)
N-methyl-3-chloro-L-phenylalanine

>  <symbol>  (51)
Me_Phe(3-Cl)

>  <m_abbr>  (51)
Me_Phe(3-Cl)

>  <m_type>  (51)
aa

>  <m_subtype>  (51)
non-natural

>  <m_RgroupIdx>  (51)
13,14,None,None

>  <m_Rgroups>  (51)
H,OH,None,None

>  <m_attachmentPointIdx>  (51)
1,11,None,None

>  <natAnalog>  (51)
F

$$$$

     RDKit          2D

 15 15  0  0  0  0  0  0  0  0999 V2000
    1.5000   -2.5981    0.0000 C   0  0  0  0  0  0  0  0  0  0  0  0
    3.0000   -2.5981    0.0000 N   0  0  0  0  0  0  0  0  0  0  0  0
    3.7500   -1.2990    0.0000 C   0  0  0  0  0  0  0  0  0  0  0  0
    3.0000    0.0000    0.0000 C   0  0  0  0  0  0  0  0  0  0  0  0
    1.5000    0.0000    0.0000 C   0  0  0  0  0  0  0  0  0  0  0  0
    0.7500   -1.2990    0.0000 C   0  0  0  0  0  0  0  0  0  0  0  0
   -0.7500   -1.2990    0.0000 C   0  0  0  0  0  0  0  0  0  0  0  0
   -1.5000    0.0000    0.0000 C   0  0  0  0  0  0  0  0  0  0  0  0
   -3.0000    0.0000    0.0000 Cl  0  0  0  0  0  0  0  0  0  0  0  0
   -0.7500    1.2990    0.0000 C   0  0  0  0  0  0  0  0  0  0  0  0
    0.7500    1.2990    0.0000 C   0  0  0  0  0  0  0  0  0  0  0  0
    5.2500   -1.2990    0.0000 C   0  0  0  0  0  0  0  0  0  0  0  0
    6.0000    0.0000    0.0000 O   0  0  0  0  0  0  0  0  0  0  0  0
    3.7500   -3.8971    0.0000 R#  0  0  0  0  0  0  0  0  0  0  0  0
    6.0000   -2.5981    0.0000 R#  0  0  0  0  0  0  0  0  0  0  0  0
  1  2  1  0
  2 14  1  0
  2  3  1  0
  3  4  1  1
  4  5  1  0
  5  6  2  0
  6  7  1  0
  7  8  2  0
  8  9  1  0
  8 10  1  0
 10 11  2  0
  3 12  1  0
 12 15  1  0
 12 13  2  0
 11  5  1  0
M  RGP  2  14   1  15   2
V   14 *
V   15 *
M  END
>  <m_name>  (52)
N-methyl-4-chloro-L-phenylalanine

>  <symbol>  (52)
Me_Phe(4-Cl)

>  <m_abbr>  (52)
Me_Phe(4-Cl)

>  <m_type>  (52)
aa

>  <m_subtype>  (52)
non-natural

>  <m_RgroupIdx>  (52)
13,14,None,None

>  <m_Rgroups>  (52)
H,OH,None,None

>  <m_attachmentPointIdx>  (52)
1,11,None,None

>  <natAnalog>  (52)
F

$$$$

     RDKit          2D

 14 14  0  0  0  0  0  0  0  0999 V2000
    1.5000    2.5981    0.0000 C   0  0  0  0  0  0  0  0  0  0  0  0
    3.0000    2.5981    0.0000 N   0  0  0  0  0  0  0  0  0  0  0  0
    3.7500    1.2990    0.0000 C   0  0  0  0  0  0  0  0  0  0  0  0
    3.0000    0.0000    0.0000 C   0  0  0  0  0  0  0  0  0  0  0  0
    1.5000    0.0000    0.0000 C   0  0  0  0  0  0  0  0  0  0  0  0
    0.7500   -1.2990    0.0000 C   0  0  0  0  0  0  0  0  0  0  0  0
   -0.7500   -1.2990    0.0000 C   0  0  0  0  0  0  0  0  0  0  0  0
   -1.5000    0.0000    0.0000 C   0  0  0  0  0  0  0  0  0  0  0  0
   -0.7500    1.2990    0.0000 C   0  0  0  0  0  0  0  0  0  0  0  0
    0.7500    1.2990    0.0000 C   0  0  0  0  0  0  0  0  0  0  0  0
    5.2500    1.2990    0.0000 C   0  0  0  0  0  0  0  0  0  0  0  0
    6.0000    0.0000    0.0000 O   0  0  0  0  0  0  0  0  0  0  0  0
    3.7500    3.8971    0.0000 R#  0  0  0  0  0  0  0  0  0  0  0  0
    6.0000    2.5981    0.0000 R#  0  0  0  0  0  0  0  0  0  0  0  0
  1  2  1  0
  2 13  1  0
  2  3  1  0
  3  4  2  0
  4  5  1  0
  5  6  2  0
  6  7  1  0
  7  8  2  0
  8  9  1  0
  9 10  2  0
  3 11  1  0
 11 14  1  0
 11 12  2  0
 10  5  1  0
M  RGP  2  13   1  14   2
V   13 *
V   14 *
M  END
>  <m_name>  (53)
N-methyl-alpha,beta-didehydro-phenylalanine

>  <symbol>  (53)
Me_Phe(a,b-dehydro)

>  <m_abbr>  (53)
Me_Phe(a,b-dehydro)

>  <m_type>  (53)
aa

>  <m_subtype>  (53)
non-natural

>  <m_RgroupIdx>  (53)
12,13,None,None

>  <m_Rgroups>  (53)
H,OH,None,None

>  <m_attachmentPointIdx>  (53)
1,10,None,None

>  <natAnalog>  (53)
F

$$$$

     RDKit          2D

  6  5  0  0  0  0  0  0  0  0999 V2000
    1.2990    0.7500    0.0000 N   0  0  0  0  0  0  0  0  0  0  0  0
    2.5981   -0.0000    0.0000 C   0  0  0  0  0  0  0  0  0  0  0  0
    3.8971    0.7500    0.0000 C   0  0  0  0  0  0  0  0  0  0  0  0
    3.8971    2.2500    0.0000 O   0  0  0  0  0  0  0  0  0  0  0  0
    0.0000    0.0000    0.0000 R#  0  0  0  0  0  0  0  0  0  0  0  0
    5.1962   -0.0000    0.0000 R#  0  0  0  0  0  0  0  0  0  0  0  0
  5  1  1  0
  1  2  1  0
  2  3  1  0
  3  6  1  0
  3  4  2  0
M  RGP  2   5   1   6   2
V    5 *
V    6 *
M  END
>  <m_name>  (54)
Glycine

>  <symbol>  (54)
G

>  <m_abbr>  (54)
G

>  <m_type>  (54)
aa

>  <m_subtype>  (54)
non-natural

>  <m_RgroupIdx>  (54)
4,5,None,None

>  <m_Rgroups>  (54)
H,OH,None,None

>  <m_attachmentPointIdx>  (54)
0,2,None,None

>  <natAnalog>  (54)
G

$$$$

     RDKit          2D

 13 13  0  0  0  0  0  0  0  0999 V2000
    3.7500   -1.2990    0.0000 N   0  0  0  0  0  0  0  0  0  0  0  0
    3.0000   -2.5981    0.0000 C   0  0  0  0  0  0  0  0  0  0  0  0
    3.7500   -3.8971    0.0000 C   0  0  0  0  0  0  0  0  0  0  0  0
    5.2500   -3.8971    0.0000 O   0  0  0  0  0  0  0  0  0  0  0  0
    3.0000    0.0000    0.0000 C   0  0  0  0  0  0  0  0  0  0  0  0
    1.5000    0.0000    0.0000 C   0  0  0  0  0  0  0  0  0  0  0  0
    0.7500   -1.2990    0.0000 C   0  0  0  0  0  0  0  0  0  0  0  0
   -0.7500   -1.2990    0.0000 C   0  0  0  0  0  0  0  0  0  0  0  0
   -1.5000    0.0000    0.0000 C   0  0  0  0  0  0  0  0  0  0  0  0
   -0.7500    1.2990    0.0000 C   0  0  0  0  0  0  0  0  0  0  0  0
    0.7500    1.2990    0.0000 C   0  0  0  0  0  0  0  0  0  0  0  0
    5.2500   -1.2990    0.0000 R#  0  0  0  0  0  0  0  0  0  0  0  0
    3.0000   -5.1962    0.0000 R#  0  0  0  0  0  0  0  0  0  0  0  0
 12  1  1  0
  1  2  1  0
  2  3  1  0
  3 13  1  0
  3  4  2  0
  1  5  1  0
  5  6  1  0
  6  7  2  0
  7  8  1  0
  8  9  2  0
  9 10  1  0
 10 11  2  0
 11  6  1  0
M  RGP  2  12   1  13   2
V   12 *
V   13 *
M  END
>  <m_name>  (55)
N-benzyl-glycine

>  <symbol>  (55)
Bn_Gly

>  <m_abbr>  (55)
Bn_Gly

>  <m_type>  (55)
aa

>  <m_subtype>  (55)
non-natural

>  <m_RgroupIdx>  (55)
11,12,None,None

>  <m_Rgroups>  (55)
H,OH,None,None

>  <m_attachmentPointIdx>  (55)
0,2,None,None

>  <natAnalog>  (55)
G

$$$$

     RDKit          2D

 14 14  0  0  0  0  0  0  0  0999 V2000
    3.7500   -1.2990    0.0000 N   0  0  0  0  0  0  0  0  0  0  0  0
    3.0000   -2.5981    0.0000 C   0  0  0  0  0  0  0  0  0  0  0  0
    3.7500   -3.8971    0.0000 C   0  0  0  0  0  0  0  0  0  0  0  0
    5.2500   -3.8971    0.0000 O   0  0  0  0  0  0  0  0  0  0  0  0
    3.0000    0.0000    0.0000 C   0  0  0  0  0  0  0  0  0  0  0  0
    1.5000    0.0000    0.0000 C   0  0  0  0  0  0  0  0  0  0  0  0
    0.7500   -1.2990    0.0000 C   0  0  0  0  0  0  0  0  0  0  0  0
   -0.7500   -1.2990    0.0000 C   0  0  0  0  0  0  0  0  0  0  0  0
   -1.5000    0.0000    0.0000 C   0  0  0  0  0  0  0  0  0  0  0  0
   -3.0000    0.0000    0.0000 Cl  0  0  0  0  0  0  0  0  0  0  0  0
   -0.7500    1.2990    0.0000 C   0  0  0  0  0  0  0  0  0  0  0  0
    0.7500    1.2990    0.0000 C   0  0  0  0  0  0  0  0  0  0  0  0
    5.2500   -1.2990    0.0000 R#  0  0  0  0  0  0  0  0  0  0  0  0
    3.0000   -5.1962    0.0000 R#  0  0  0  0  0  0  0  0  0  0  0  0
 13  1  1  0
  1  2  1  0
  2  3  1  0
  3 14  1  0
  3  4  2  0
  1  5  1  0
  5  6  1  0
  6  7  2  0
  7  8  1  0
  8  9  2  0
  9 10  1  0
  9 11  1  0
 11 12  2  0
 12  6  1  0
M  RGP  2  13   1  14   2
V   13 *
V   14 *
M  END
>  <m_name>  (56)
N-(4-chlorobenzyl)-glycine

>  <symbol>  (56)
Bn(4-Cl)_Gly

>  <m_abbr>  (56)
Bn(4-Cl)_Gly

>  <m_type>  (56)
aa

>  <m_subtype>  (56)
non-natural

>  <m_RgroupIdx>  (56)
12,13,None,None

>  <m_Rgroups>  (56)
H,OH,None,None

>  <m_attachmentPointIdx>  (56)
0,2,None,None

>  <natAnalog>  (56)
G

$$$$

     RDKit          2D

 14 14  0  0  0  0  0  0  0  0999 V2000
    3.0000    0.0000    0.0000 O   0  0  0  0  0  0  0  0  0  0  0  0
    1.5000    0.0000    0.0000 C   0  0  0  0  0  0  0  0  0  0  0  0
    0.7500   -1.2990    0.0000 C   0  0  0  0  0  0  0  0  0  0  0  0
   -0.7500   -1.2990    0.0000 C   0  0  0  0  0  0  0  0  0  0  0  0
   -1.5000    0.0000    0.0000 C   0  0  0  0  0  0  0  0  0  0  0  0
   -3.0000    0.0000    0.0000 C   0  0  0  0  0  0  0  0  0  0  0  0
   -3.7500    1.2990    0.0000 N   0  0  0  0  0  0  0  0  0  0  0  0
   -3.0000    2.5981    0.0000 C   0  0  0  0  0  0  0  0  0  0  0  0
   -3.7500    3.8971    0.0000 C   0  0  0  0  0  0  0  0  0  0  0  0
   -5.2500    3.8971    0.0000 O   0  0  0  0  0  0  0  0  0  0  0  0
   -0.7500    1.2990    0.0000 C   0  0  0  0  0  0  0  0  0  0  0  0
    0.7500    1.2990    0.0000 C   0  0  0  0  0  0  0  0  0  0  0  0
   -5.2500    1.2990    0.0000 R#  0  0  0  0  0  0  0  0  0  0  0  0
   -3.0000    5.1962    0.0000 R#  0  0  0  0  0  0  0  0  0  0  0  0
  1  2  1  0
  2  3  2  0
  3  4  1  0
  4  5  2  0
  5  6  1  0
  6  7  1  0
  7 13  1  0
  7  8  1  0
  8  9  1  0
  9 14  1  0
  9 10  2  0
  5 11  1  0
 11 12  2  0
 12  2  1  0
M  RGP  2  13   1  14   2
V   13 *
V   14 *
M  END
>  <m_name>  (57)
N-(4-hydroxybenzyl)-glycine

>  <symbol>  (57)
Bn(4-OH)_Gly

>  <m_abbr>  (57)
Bn(4-OH)_Gly

>  <m_type>  (57)
aa

>  <m_subtype>  (57)
non-natural

>  <m_RgroupIdx>  (57)
12,13,None,None

>  <m_Rgroups>  (57)
H,OH,None,None

>  <m_attachmentPointIdx>  (57)
6,8,None,None

>  <natAnalog>  (57)
G

$$$$

     RDKit          2D

 10  9  0  0  0  0  0  0  0  0999 V2000
    6.4952    0.7500    0.0000 C   0  0  0  0  0  0  0  0  0  0  0  0
    5.1962   -0.0000    0.0000 C   0  0  0  0  0  0  0  0  0  0  0  0
    3.8971    0.7500    0.0000 C   0  0  0  0  0  0  0  0  0  0  0  0
    2.5981   -0.0000    0.0000 C   0  0  0  0  0  0  0  0  0  0  0  0
    1.2990    0.7500    0.0000 N   0  0  0  0  0  0  0  0  0  0  0  0
    1.2990    2.2500    0.0000 C   0  0  0  0  0  0  0  0  0  0  0  0
    2.5981    3.0000    0.0000 C   0  0  0  0  0  0  0  0  0  0  0  0
    3.8971    2.2500    0.0000 O   0  0  0  0  0  0  0  0  0  0  0  0
    0.0000    0.0000    0.0000 R#  0  0  0  0  0  0  0  0  0  0  0  0
    2.5981    4.5000    0.0000 R#  0  0  0  0  0  0  0  0  0  0  0  0
  1  2  1  0
  2  3  1  0
  3  4  1  0
  4  5  1  0
  5  9  1  0
  5  6  1  0
  6  7  1  0
  7 10  1  0
  7  8  2  0
M  RGP  2   9   1  10   2
V    9 *
V   10 *
M  END
>  <m_name>  (58)
N-butyl-glycine

>  <symbol>  (58)
Bu_Gly

>  <m_abbr>  (58)
Bu_Gly

>  <m_type>  (58)
aa

>  <m_subtype>  (58)
non-natural

>  <m_RgroupIdx>  (58)
8,9,None,None

>  <m_Rgroups>  (58)
H,OH,None,None

>  <m_attachmentPointIdx>  (58)
4,6,None,None

>  <natAnalog>  (58)
G

$$$$

     RDKit          2D

 10  9  0  0  0  0  0  0  0  0999 V2000
    5.1962   -0.0000    0.0000 C   0  0  0  0  0  0  0  0  0  0  0  0
    3.8971    0.7500    0.0000 C   0  0  0  0  0  0  0  0  0  0  0  0
    3.8971    2.2500    0.0000 C   0  0  0  0  0  0  0  0  0  0  0  0
    2.5981   -0.0000    0.0000 C   0  0  0  0  0  0  0  0  0  0  0  0
    1.2990    0.7500    0.0000 N   0  0  0  0  0  0  0  0  0  0  0  0
    1.2990    2.2500    0.0000 C   0  0  0  0  0  0  0  0  0  0  0  0
    0.0000    3.0000    0.0000 C   0  0  0  0  0  0  0  0  0  0  0  0
   -1.2990    2.2500    0.0000 O   0  0  0  0  0  0  0  0  0  0  0  0
    0.0000    0.0000    0.0000 R#  0  0  0  0  0  0  0  0  0  0  0  0
   -0.0000    4.5000    0.0000 R#  0  0  0  0  0  0  0  0  0  0  0  0
  1  2  1  0
  2  3  1  0
  2  4  1  0
  4  5  1  0
  5  9  1  0
  5  6  1  0
  6  7  1  0
  7 10  1  0
  7  8  2  0
M  RGP  2   9   1  10   2
V    9 *
V   10 *
M  END
>  <m_name>  (59)
N-isobutyl-glycine

>  <symbol>  (59)
iBu_Gly

>  <m_abbr>  (59)
iBu_Gly

>  <m_type>  (59)
aa

>  <m_subtype>  (59)
non-natural

>  <m_RgroupIdx>  (59)
8,9,None,None

>  <m_Rgroups>  (59)
H,OH,None,None

>  <m_attachmentPointIdx>  (59)
4,6,None,None

>  <natAnalog>  (59)
G

$$$$

     RDKit          2D

  8  7  0  0  0  0  0  0  0  0999 V2000
    3.8971    0.7500    0.0000 C   0  0  0  0  0  0  0  0  0  0  0  0
    2.5981   -0.0000    0.0000 C   0  0  0  0  0  0  0  0  0  0  0  0
    1.2990    0.7500    0.0000 N   0  0  0  0  0  0  0  0  0  0  0  0
    1.2990    2.2500    0.0000 C   0  0  0  0  0  0  0  0  0  0  0  0
    2.5981    3.0000    0.0000 C   0  0  0  0  0  0  0  0  0  0  0  0
    3.8971    2.2500    0.0000 O   0  0  0  0  0  0  0  0  0  0  0  0
    0.0000    0.0000    0.0000 R#  0  0  0  0  0  0  0  0  0  0  0  0
    2.5981    4.5000    0.0000 R#  0  0  0  0  0  0  0  0  0  0  0  0
  1  2  1  0
  2  3  1  0
  3  7  1  0
  3  4  1  0
  4  5  1  0
  5  8  1  0
  5  6  2  0
M  RGP  2   7   1   8   2
V    7 *
V    8 *
M  END
>  <m_name>  (60)
N-ethyl-glycine

>  <symbol>  (60)
Et_Gly

>  <m_abbr>  (60)
Et_Gly

>  <m_type>  (60)
aa

>  <m_subtype>  (60)
non-natural

>  <m_RgroupIdx>  (60)
6,7,None,None

>  <m_Rgroups>  (60)
H,OH,None,None

>  <m_attachmentPointIdx>  (60)
2,4,None,None

>  <natAnalog>  (60)
G

$$$$

     RDKit          2D

 11 10  0  0  0  0  0  0  0  0999 V2000
    7.7942   -0.0000    0.0000 C   0  0  0  0  0  0  0  0  0  0  0  0
    6.4952    0.7500    0.0000 C   0  0  0  0  0  0  0  0  0  0  0  0
    5.1962   -0.0000    0.0000 O   0  0  0  0  0  0  0  0  0  0  0  0
    3.8971    0.7500    0.0000 C   0  0  0  0  0  0  0  0  0  0  0  0
    2.5981   -0.0000    0.0000 C   0  0  0  0  0  0  0  0  0  0  0  0
    1.2990    0.7500    0.0000 N   0  0  0  0  0  0  0  0  0  0  0  0
    1.2990    2.2500    0.0000 C   0  0  0  0  0  0  0  0  0  0  0  0
    2.5981    3.0000    0.0000 C   0  0  0  0  0  0  0  0  0  0  0  0
    3.8971    2.2500    0.0000 O   0  0  0  0  0  0  0  0  0  0  0  0
    0.0000    0.0000    0.0000 R#  0  0  0  0  0  0  0  0  0  0  0  0
    2.5981    4.5000    0.0000 R#  0  0  0  0  0  0  0  0  0  0  0  0
  1  2  1  0
  2  3  1  0
  3  4  1  0
  4  5  1  0
  5  6  1  0
  6 10  1  0
  6  7  1  0
  7  8  1  0
  8 11  1  0
  8  9  2  0
M  RGP  2  10   1  11   2
V   10 *
V   11 *
M  END
>  <m_name>  (61)
N-(2-ethoxyethyl)-glycine

>  <symbol>  (61)
EtOEt_Gly

>  <m_abbr>  (61)
EtOEt_Gly

>  <m_type>  (61)
aa

>  <m_subtype>  (61)
non-natural

>  <m_RgroupIdx>  (61)
9,10,None,None

>  <m_Rgroups>  (61)
H,OH,None,None

>  <m_attachmentPointIdx>  (61)
5,7,None,None

>  <natAnalog>  (61)
G

$$$$

     RDKit          2D

  9  8  0  0  0  0  0  0  0  0999 V2000
    1.2990    0.7500    0.0000 N   0  0  0  0  0  0  0  0  0  0  0  0
    2.5981   -0.0000    0.0000 C   0  0  0  0  0  0  0  0  0  0  0  0
    3.8971    0.7500    0.0000 C   0  0  0  0  0  0  0  0  0  0  0  0
    5.1962   -0.0000    0.0000 O   0  0  0  0  0  0  0  0  0  0  0  0
    1.2990    2.2500    0.0000 C   0  0  0  0  0  0  0  0  0  0  0  0
    2.5981    3.0000    0.0000 C   0  0  0  0  0  0  0  0  0  0  0  0
    3.8971    2.2500    0.0000 O   0  0  0  0  0  0  0  0  0  0  0  0
    0.0000    0.0000    0.0000 R#  0  0  0  0  0  0  0  0  0  0  0  0
    2.5981    4.5000    0.0000 R#  0  0  0  0  0  0  0  0  0  0  0  0
  8  1  1  0
  1  2  1  0
  2  3  1  0
  3  4  1  0
  1  5  1  0
  5  6  1  0
  6  9  1  0
  6  7  2  0
M  RGP  2   8   1   9   2
V    8 *
V    9 *
M  END
>  <m_name>  (62)
Petalonine

>  <symbol>  (62)
HOCOCH2_Gly_ol

>  <m_abbr>  (62)
HOCOCH2_Gly_ol

>  <m_type>  (62)
aa

>  <m_subtype>  (62)
non-natural

>  <m_RgroupIdx>  (62)
7,8,None,None

>  <m_Rgroups>  (62)
H,OH,None,None

>  <m_attachmentPointIdx>  (62)
0,5,None,None

>  <natAnalog>  (62)
G

$$$$

     RDKit          2D

 10  9  0  0  0  0  0  0  0  0999 V2000
    6.4952    0.7500    0.0000 C   0  0  0  0  0  0  0  0  0  0  0  0
    5.1962   -0.0000    0.0000 O   0  0  0  0  0  0  0  0  0  0  0  0
    3.8971    0.7500    0.0000 C   0  0  0  0  0  0  0  0  0  0  0  0
    2.5981   -0.0000    0.0000 C   0  0  0  0  0  0  0  0  0  0  0  0
    1.2990    0.7500    0.0000 N   0  0  0  0  0  0  0  0  0  0  0  0
    1.2990    2.2500    0.0000 C   0  0  0  0  0  0  0  0  0  0  0  0
    2.5981    3.0000    0.0000 C   0  0  0  0  0  0  0  0  0  0  0  0
    3.8971    2.2500    0.0000 O   0  0  0  0  0  0  0  0  0  0  0  0
    0.0000    0.0000    0.0000 R#  0  0  0  0  0  0  0  0  0  0  0  0
    2.5981    4.5000    0.0000 R#  0  0  0  0  0  0  0  0  0  0  0  0
  1  2  1  0
  2  3  1  0
  3  4  1  0
  4  5  1  0
  5  9  1  0
  5  6  1  0
  6  7  1  0
  7 10  1  0
  7  8  2  0
M  RGP  2   9   1  10   2
V    9 *
V   10 *
M  END
>  <m_name>  (63)
N-(2-methoxyethyl)-glycine

>  <symbol>  (63)
MeOEt_Gly

>  <m_abbr>  (63)
MeOEt_Gly

>  <m_type>  (63)
aa

>  <m_subtype>  (63)
non-natural

>  <m_RgroupIdx>  (63)
8,9,None,None

>  <m_Rgroups>  (63)
H,OH,None,None

>  <m_attachmentPointIdx>  (63)
4,6,None,None

>  <natAnalog>  (63)
G

$$$$

     RDKit          2D

 11 10  0  0  0  0  0  0  0  0999 V2000
    1.2990    0.7500    0.0000 N   0  0  0  0  0  0  0  0  0  0  0  0
    2.5981   -0.0000    0.0000 C   0  0  0  0  0  0  0  0  0  0  0  0
    3.8971    0.7500    0.0000 C   0  0  0  0  0  0  0  0  0  0  0  0
    5.1962   -0.0000    0.0000 C   0  0  0  0  0  0  0  0  0  0  0  0
    6.4952    0.7500    0.0000 C   0  0  0  0  0  0  0  0  0  0  0  0
    7.7942   -0.0000    0.0000 N   0  0  0  0  0  0  0  0  0  0  0  0
    1.2990    2.2500    0.0000 C   0  0  0  0  0  0  0  0  0  0  0  0
    2.5981    3.0000    0.0000 C   0  0  0  0  0  0  0  0  0  0  0  0
    3.8971    2.2500    0.0000 O   0  0  0  0  0  0  0  0  0  0  0  0
    0.0000    0.0000    0.0000 R#  0  0  0  0  0  0  0  0  0  0  0  0
    2.5981    4.5000    0.0000 R#  0  0  0  0  0  0  0  0  0  0  0  0
 10  1  1  0
  1  2  1  0
  2  3  1  0
  3  4  1  0
  4  5  1  0
  5  6  1  0
  1  7  1  0
  7  8  1  0
  8 11  1  0
  8  9  2  0
M  RGP  2  10   1  11   2
V   10 *
V   11 *
M  END
>  <m_name>  (64)
N-(4-aminobutyl)glycine

>  <symbol>  (64)
NH2Bu_Gly

>  <m_abbr>  (64)
NH2Bu_Gly

>  <m_type>  (64)
aa

>  <m_subtype>  (64)
non-natural

>  <m_RgroupIdx>  (64)
9,10,None,None

>  <m_Rgroups>  (64)
H,OH,None,None

>  <m_attachmentPointIdx>  (64)
0,7,None,None

>  <natAnalog>  (64)
G

$$$$

     RDKit          2D

  9  8  0  0  0  0  0  0  0  0999 V2000
    5.1962   -0.0000    0.0000 C   0  0  0  0  0  0  0  0  0  0  0  0
    3.8971    0.7500    0.0000 C   0  0  0  0  0  0  0  0  0  0  0  0
    2.5981   -0.0000    0.0000 C   0  0  0  0  0  0  0  0  0  0  0  0
    1.2990    0.7500    0.0000 N   0  0  0  0  0  0  0  0  0  0  0  0
    1.2990    2.2500    0.0000 C   0  0  0  0  0  0  0  0  0  0  0  0
    2.5981    3.0000    0.0000 C   0  0  0  0  0  0  0  0  0  0  0  0
    3.8971    2.2500    0.0000 O   0  0  0  0  0  0  0  0  0  0  0  0
    0.0000    0.0000    0.0000 R#  0  0  0  0  0  0  0  0  0  0  0  0
    2.5981    4.5000    0.0000 R#  0  0  0  0  0  0  0  0  0  0  0  0
  1  2  1  0
  2  3  1  0
  3  4  1  0
  4  8  1  0
  4  5  1  0
  5  6  1  0
  6  9  1  0
  6  7  2  0
M  RGP  2   8   1   9   2
V    8 *
V    9 *
M  END
>  <m_name>  (65)
N-propyl-glycine

>  <symbol>  (65)
Pr_Gly

>  <m_abbr>  (65)
Pr_Gly

>  <m_type>  (65)
aa

>  <m_subtype>  (65)
non-natural

>  <m_RgroupIdx>  (65)
7,8,None,None

>  <m_Rgroups>  (65)
H,OH,None,None

>  <m_attachmentPointIdx>  (65)
3,5,None,None

>  <natAnalog>  (65)
G

$$$$

     RDKit          2D

 14 14  0  0  0  0  0  0  0  0999 V2000
    5.2500   -1.2990    0.0000 N   0  0  0  0  0  0  0  0  0  0  0  0
    3.7500   -1.2990    0.0000 C   0  0  0  0  0  0  0  0  0  0  0  0
    3.0000    0.0000    0.0000 C   0  0  0  0  0  0  0  0  0  0  0  0
    1.5000    0.0000    0.0000 C   0  0  0  0  0  0  0  0  0  0  0  0
    0.7500   -1.2990    0.0000 C   0  0  0  0  0  0  0  0  0  0  0  0
   -0.7500   -1.2990    0.0000 C   0  0  0  0  0  0  0  0  0  0  0  0
   -1.5000    0.0000    0.0000 C   0  0  0  0  0  0  0  0  0  0  0  0
   -0.7500    1.2990    0.0000 C   0  0  0  0  0  0  0  0  0  0  0  0
    0.7500    1.2990    0.0000 C   0  0  0  0  0  0  0  0  0  0  0  0
    6.0000    0.0000    0.0000 C   0  0  0  0  0  0  0  0  0  0  0  0
    7.5000    0.0000    0.0000 C   0  0  0  0  0  0  0  0  0  0  0  0
    8.2500   -1.2990    0.0000 O   0  0  0  0  0  0  0  0  0  0  0  0
    6.0000   -2.5981    0.0000 R#  0  0  0  0  0  0  0  0  0  0  0  0
    8.2500    1.2990    0.0000 R#  0  0  0  0  0  0  0  0  0  0  0  0
 13  1  1  0
  1  2  1  0
  2  3  1  0
  3  4  1  0
  4  5  2  0
  5  6  1  0
  6  7  2  0
  7  8  1  0
  8  9  2  0
  1 10  1  0
 10 11  1  0
 11 14  1  0
 11 12  2  0
  9  4  1  0
M  RGP  2  13   1  14   2
V   13 *
V   14 *
M  END
>  <m_name>  (66)
N-(2-phenylethyl)-glycine

>  <symbol>  (66)
PhEt_Gly

>  <m_abbr>  (66)
PhEt_Gly

>  <m_type>  (66)
aa

>  <m_subtype>  (66)
non-natural

>  <m_RgroupIdx>  (66)
12,13,None,None

>  <m_Rgroups>  (66)
H,OH,None,None

>  <m_attachmentPointIdx>  (66)
0,10,None,None

>  <natAnalog>  (66)
G

$$$$

     RDKit          2D

 15 15  0  0  0  0  0  0  0  0999 V2000
    6.0000   -2.5981    0.0000 N   0  0  0  0  0  0  0  0  0  0  0  0
    5.2500   -1.2990    0.0000 C   0  0  0  0  0  0  0  0  0  0  0  0
    3.7500   -1.2990    0.0000 C   0  0  0  0  0  0  0  0  0  0  0  0
    3.0000    0.0000    0.0000 C   0  0  0  0  0  0  0  0  0  0  0  0
    1.5000    0.0000    0.0000 C   0  0  0  0  0  0  0  0  0  0  0  0
    0.7500   -1.2990    0.0000 C   0  0  0  0  0  0  0  0  0  0  0  0
   -0.7500   -1.2990    0.0000 C   0  0  0  0  0  0  0  0  0  0  0  0
   -1.5000    0.0000    0.0000 C   0  0  0  0  0  0  0  0  0  0  0  0
   -0.7500    1.2990    0.0000 C   0  0  0  0  0  0  0  0  0  0  0  0
    0.7500    1.2990    0.0000 C   0  0  0  0  0  0  0  0  0  0  0  0
    5.2500   -3.8971    0.0000 C   0  0  0  0  0  0  0  0  0  0  0  0
    6.0000   -5.1962    0.0000 C   0  0  0  0  0  0  0  0  0  0  0  0
    7.5000   -5.1962    0.0000 O   0  0  0  0  0  0  0  0  0  0  0  0
    7.5000   -2.5981    0.0000 R#  0  0  0  0  0  0  0  0  0  0  0  0
    5.2500   -6.4952    0.0000 R#  0  0  0  0  0  0  0  0  0  0  0  0
 14  1  1  0
  1  2  1  0
  2  3  1  0
  3  4  1  0
  4  5  1  0
  5  6  2  0
  6  7  1  0
  7  8  2  0
  8  9  1  0
  9 10  2  0
  1 11  1  0
 11 12  1  0
 12 15  1  0
 12 13  2  0
 10  5  1  0
M  RGP  2  14   1  15   2
V   14 *
V   15 *
M  END
>  <m_name>  (67)
N-(3-phenylpropyl)-glycine

>  <symbol>  (67)
PhPr_Gly

>  <m_abbr>  (67)
PhPr_Gly

>  <m_type>  (67)
aa

>  <m_subtype>  (67)
non-natural

>  <m_RgroupIdx>  (67)
13,14,None,None

>  <m_Rgroups>  (67)
H,OH,None,None

>  <m_attachmentPointIdx>  (67)
0,11,None,None

>  <natAnalog>  (67)
G

$$$$

     RDKit          2D

 13 13  0  0  0  0  0  0  0  0999 V2000
    3.7500   -1.2990    0.0000 N   0  0  0  0  0  0  0  0  0  0  0  0
    3.0000    0.0000    0.0000 C   0  0  0  0  0  0  0  0  0  0  0  0
    1.5000    0.0000    0.0000 C   0  0  0  0  0  0  0  0  0  0  0  0
    0.7500   -1.2990    0.0000 C   0  0  0  0  0  0  0  0  0  0  0  0
   -0.7500   -1.2990    0.0000 C   0  0  0  0  0  0  0  0  0  0  0  0
   -1.5000    0.0000    0.0000 C   0  0  0  0  0  0  0  0  0  0  0  0
   -0.7500    1.2990    0.0000 C   0  0  0  0  0  0  0  0  0  0  0  0
    0.7500    1.2990    0.0000 C   0  0  0  0  0  0  0  0  0  0  0  0
    3.0000   -2.5981    0.0000 C   0  0  0  0  0  0  0  0  0  0  0  0
    3.7500   -3.8971    0.0000 C   0  0  0  0  0  0  0  0  0  0  0  0
    5.2500   -3.8971    0.0000 O   0  0  0  0  0  0  0  0  0  0  0  0
    5.2500   -1.2990    0.0000 R#  0  0  0  0  0  0  0  0  0  0  0  0
    3.0000   -5.1962    0.0000 R#  0  0  0  0  0  0  0  0  0  0  0  0
 12  1  1  0
  1  2  1  0
  2  3  1  0
  3  4  1  0
  4  5  1  0
  5  6  1  0
  6  7  1  0
  7  8  1  0
  1  9  1  0
  9 10  1  0
 10 13  1  0
 10 11  2  0
  8  3  1  0
M  RGP  2  12   1  13   2
V   12 *
V   13 *
M  END
>  <m_name>  (68)
N-cyclohexylmethyl-glycine

>  <symbol>  (68)
cHexCH2_Gly

>  <m_abbr>  (68)
cHexCH2_Gly

>  <m_type>  (68)
aa

>  <m_subtype>  (68)
non-natural

>  <m_RgroupIdx>  (68)
11,12,None,None

>  <m_Rgroups>  (68)
H,OH,None,None

>  <m_attachmentPointIdx>  (68)
0,9,None,None

>  <natAnalog>  (68)
G

$$$$

     RDKit          2D

 11 10  0  0  0  0  0  0  0  0999 V2000
    6.4952    0.7500    0.0000 C   0  0  0  0  0  0  0  0  0  0  0  0
    5.1962   -0.0000    0.0000 C   0  0  0  0  0  0  0  0  0  0  0  0
    5.1962   -1.5000    0.0000 C   0  0  0  0  0  0  0  0  0  0  0  0
    3.8971    0.7500    0.0000 C   0  0  0  0  0  0  0  0  0  0  0  0
    2.5981   -0.0000    0.0000 C   0  0  0  0  0  0  0  0  0  0  0  0
    1.2990    0.7500    0.0000 N   0  0  0  0  0  0  0  0  0  0  0  0
    1.2990    2.2500    0.0000 C   0  0  0  0  0  0  0  0  0  0  0  0
    2.5981    3.0000    0.0000 C   0  0  0  0  0  0  0  0  0  0  0  0
    3.8971    2.2500    0.0000 O   0  0  0  0  0  0  0  0  0  0  0  0
    0.0000    0.0000    0.0000 R#  0  0  0  0  0  0  0  0  0  0  0  0
    2.5981    4.5000    0.0000 R#  0  0  0  0  0  0  0  0  0  0  0  0
  1  2  1  0
  2  3  1  0
  2  4  1  0
  4  5  1  0
  5  6  1  0
  6 10  1  0
  6  7  1  0
  7  8  1  0
  8 11  1  0
  8  9  2  0
M  RGP  2  10   1  11   2
V   10 *
V   11 *
M  END
>  <m_name>  (69)
N-(3-methylbutyl)-glycine

>  <symbol>  (69)
isoamyl_Gly

>  <m_abbr>  (69)
isoamyl_Gly

>  <m_type>  (69)
aa

>  <m_subtype>  (69)
non-natural

>  <m_RgroupIdx>  (69)
9,10,None,None

>  <m_Rgroups>  (69)
H,OH,None,None

>  <m_attachmentPointIdx>  (69)
5,7,None,None

>  <natAnalog>  (69)
G

$$$$

     RDKit          2D

 11 10  0  0  0  0  0  0  0  0999 V2000
    7.7942   -0.0000    0.0000 C   0  0  0  0  0  0  0  0  0  0  0  0
    6.4952    0.7500    0.0000 C   0  0  0  0  0  0  0  0  0  0  0  0
    5.1962   -0.0000    0.0000 C   0  0  0  0  0  0  0  0  0  0  0  0
    3.8971    0.7500    0.0000 C   0  0  0  0  0  0  0  0  0  0  0  0
    2.5981   -0.0000    0.0000 C   0  0  0  0  0  0  0  0  0  0  0  0
    1.2990    0.7500    0.0000 N   0  0  0  0  0  0  0  0  0  0  0  0
    1.2990    2.2500    0.0000 C   0  0  0  0  0  0  0  0  0  0  0  0
    2.5981    3.0000    0.0000 C   0  0  0  0  0  0  0  0  0  0  0  0
    3.8971    2.2500    0.0000 O   0  0  0  0  0  0  0  0  0  0  0  0
    0.0000    0.0000    0.0000 R#  0  0  0  0  0  0  0  0  0  0  0  0
    2.5981    4.5000    0.0000 R#  0  0  0  0  0  0  0  0  0  0  0  0
  1  2  1  0
  2  3  1  0
  3  4  1  0
  4  5  1  0
  5  6  1  0
  6 10  1  0
  6  7  1  0
  7  8  1  0
  8 11  1  0
  8  9  2  0
M  RGP  2  10   1  11   2
V   10 *
V   11 *
M  END
>  <m_name>  (70)
N-pentyl-glycine

>  <symbol>  (70)
pentyl_Gly

>  <m_abbr>  (70)
pentyl_Gly

>  <m_type>  (70)
aa

>  <m_subtype>  (70)
non-natural

>  <m_RgroupIdx>  (70)
9,10,None,None

>  <m_Rgroups>  (70)
H,OH,None,None

>  <m_attachmentPointIdx>  (70)
5,7,None,None

>  <natAnalog>  (70)
G

$$$$

     RDKit          2D

 14 14  0  0  0  0  0  0  0  0999 V2000
    5.2500   -1.2990    0.0000 N   0  0  0  0  0  0  0  0  0  0  0  0
    3.7500   -1.2990    0.0000 C   0  0  0  0  0  0  0  0  0  0  0  0
    3.0000    0.0000    0.0000 C   0  0  0  0  0  0  0  0  0  0  0  0
    1.5000    0.0000    0.0000 C   0  0  0  0  0  0  0  0  0  0  0  0
    0.7500   -1.2990    0.0000 C   0  0  0  0  0  0  0  0  0  0  0  0
   -0.7500   -1.2990    0.0000 C   0  0  0  0  0  0  0  0  0  0  0  0
   -1.5000    0.0000    0.0000 C   0  0  0  0  0  0  0  0  0  0  0  0
   -0.7500    1.2990    0.0000 N   0  0  0  0  0  0  0  0  0  0  0  0
    0.7500    1.2990    0.0000 C   0  0  0  0  0  0  0  0  0  0  0  0
    6.0000    0.0000    0.0000 C   0  0  0  0  0  0  0  0  0  0  0  0
    7.5000    0.0000    0.0000 C   0  0  0  0  0  0  0  0  0  0  0  0
    8.2500   -1.2990    0.0000 O   0  0  0  0  0  0  0  0  0  0  0  0
    6.0000   -2.5981    0.0000 R#  0  0  0  0  0  0  0  0  0  0  0  0
    8.2500    1.2990    0.0000 R#  0  0  0  0  0  0  0  0  0  0  0  0
 13  1  1  0
  1  2  1  0
  2  3  1  0
  3  4  1  0
  4  5  2  0
  5  6  1  0
  6  7  2  0
  7  8  1  0
  8  9  2  0
  1 10  1  0
 10 11  1  0
 11 14  1  0
 11 12  2  0
  9  4  1  0
M  RGP  2  13   1  14   2
V   13 *
V   14 *
M  END
>  <m_name>  (71)
N-(2-pyrid-3-ylethyl)-glycine

>  <symbol>  (71)
3-pyridylethyl_Gly

>  <m_abbr>  (71)
3-pyridylethyl_Gly

>  <m_type>  (71)
aa

>  <m_subtype>  (71)
non-natural

>  <m_RgroupIdx>  (71)
12,13,None,None

>  <m_Rgroups>  (71)
H,OH,None,None

>  <m_attachmentPointIdx>  (71)
0,10,None,None

>  <natAnalog>  (71)
G

$$$$

     RDKit          2D

 13 13  0  0  0  0  0  0  0  0999 V2000
    3.7500   -1.2990    0.0000 N   0  0  0  0  0  0  0  0  0  0  0  0
    3.0000   -2.5981    0.0000 C   0  0  0  0  0  0  0  0  0  0  0  0
    3.7500   -3.8971    0.0000 C   0  0  0  0  0  0  0  0  0  0  0  0
    5.2500   -3.8971    0.0000 O   0  0  0  0  0  0  0  0  0  0  0  0
    3.0000    0.0000    0.0000 C   0  0  0  0  0  0  0  0  0  0  0  0
    1.5000    0.0000    0.0000 C   0  0  0  0  0  0  0  0  0  0  0  0
    0.7500   -1.2990    0.0000 C   0  0  0  0  0  0  0  0  0  0  0  0
   -0.7500   -1.2990    0.0000 C   0  0  0  0  0  0  0  0  0  0  0  0
   -1.5000    0.0000    0.0000 C   0  0  0  0  0  0  0  0  0  0  0  0
   -0.7500    1.2990    0.0000 C   0  0  0  0  0  0  0  0  0  0  0  0
    0.7500    1.2990    0.0000 N   0  0  0  0  0  0  0  0  0  0  0  0
    5.2500   -1.2990    0.0000 R#  0  0  0  0  0  0  0  0  0  0  0  0
    3.0000   -5.1962    0.0000 R#  0  0  0  0  0  0  0  0  0  0  0  0
 12  1  1  0
  1  2  1  0
  2  3  1  0
  3 13  1  0
  3  4  2  0
  1  5  1  0
  5  6  1  0
  6  7  2  0
  7  8  1  0
  8  9  2  0
  9 10  1  0
 10 11  2  0
 11  6  1  0
M  RGP  2  12   1  13   2
V   12 *
V   13 *
M  END
>  <m_name>  (72)
N-pyrid-2-ylmethyl-glycine

>  <symbol>  (72)
2-pyridylmethyl_Gly

>  <m_abbr>  (72)
2-pyridylmethyl_Gly

>  <m_type>  (72)
aa

>  <m_subtype>  (72)
non-natural

>  <m_RgroupIdx>  (72)
11,12,None,None

>  <m_Rgroups>  (72)
H,OH,None,None

>  <m_attachmentPointIdx>  (72)
0,2,None,None

>  <natAnalog>  (72)
G

$$$$

     RDKit          2D

  9  8  0  0  0  0  0  0  0  0999 V2000
    6.4952    0.7500    0.0000 C   0  0  0  0  0  0  0  0  0  0  0  0
    5.1962   -0.0000    0.0000 C   0  0  0  0  0  0  0  0  0  0  0  0
    3.8971    0.7500    0.0000 C   0  0  0  0  0  0  0  0  0  0  0  0
    2.5981   -0.0000    0.0000 C   0  0  0  0  0  0  0  0  0  0  0  0
    1.2990    0.7500    0.0000 O   0  0  0  0  0  0  0  0  0  0  0  0
    2.5981   -1.5000    0.0000 C   0  0  0  0  0  0  0  0  0  0  0  0
    1.2990   -2.2500    0.0000 O   0  0  0  0  0  0  0  0  0  0  0  0
    0.0000    0.0000    0.0000 R#  0  0  0  0  0  0  0  0  0  0  0  0
    3.8971   -2.2500    0.0000 R#  0  0  0  0  0  0  0  0  0  0  0  0
  1  2  2  0
  2  3  1  0
  4  3  1  6
  4  5  1  0
  5  8  1  0
  4  6  1  0
  6  9  1  0
  6  7  2  0
M  RGP  2   8   1   9   2
V    8 *
V    9 *
M  END
>  <symbol>  (73)
d(N->O)Gly(allyl)

>  <m_abbr>  (73)
d(N->O)Gly(allyl)

>  <m_type>  (73)
aa

>  <m_subtype>  (73)
non-natural

>  <m_RgroupIdx>  (73)
7,8,None,None

>  <m_Rgroups>  (73)
H,OH,None,None

>  <m_attachmentPointIdx>  (73)
4,5,None,None

>  <natAnalog>  (73)
G

$$$$

     RDKit          2D

  8  7  0  0  0  0  0  0  0  0999 V2000
    1.2990    0.7500    0.0000 N   0  0  0  0  0  0  0  0  0  0  0  0
    2.5981   -0.0000    0.0000 C   0  0  0  0  0  0  0  0  0  0  0  0
    3.8971    0.7500    0.0000 C   0  0  0  0  0  0  0  0  0  0  0  0
    5.1962   -0.0000    0.0000 C   0  0  0  0  0  0  0  0  0  0  0  0
    6.4952    0.7500    0.0000 C   0  0  0  0  0  0  0  0  0  0  0  0
    6.4952    2.2500    0.0000 O   0  0  0  0  0  0  0  0  0  0  0  0
    0.0000    0.0000    0.0000 R#  0  0  0  0  0  0  0  0  0  0  0  0
    7.7942   -0.0000    0.0000 R#  0  0  0  0  0  0  0  0  0  0  0  0
  7  1  1  0
  1  2  1  0
  2  3  1  0
  3  4  1  0
  4  5  1  0
  5  8  1  0
  5  6  2  0
M  RGP  2   7   1   8   2
V    7 *
V    8 *
M  END
>  <m_name>  (74)
4-aminobutyric acid

>  <symbol>  (74)
GABA

>  <m_abbr>  (74)
GABA

>  <m_type>  (74)
aa

>  <m_subtype>  (74)
non-natural

>  <m_RgroupIdx>  (74)
6,7,None,None

>  <m_Rgroups>  (74)
H,OH,None,None

>  <m_attachmentPointIdx>  (74)
0,4,None,None

>  <natAnalog>  (74)
X

$$$$

     RDKit          2D

 12 12  0  0  0  0  0  0  0  0999 V2000
    2.7760   -2.5981    0.0000 N   0  0  0  0  0  0  0  0  0  0  0  0
    3.5260   -1.2990    0.0000 C   0  0  0  0  0  0  0  0  0  0  0  0
    2.7760    0.0000    0.0000 C   0  0  0  0  0  0  0  0  0  0  0  0
    1.2760    0.0000    0.0000 C   0  0  0  0  0  0  0  0  0  0  0  0
    0.3943    1.2135    0.0000 C   0  0  0  0  0  0  0  0  0  0  0  0
   -1.0323    0.7500    0.0000 N   0  0  0  0  0  0  0  0  0  0  0  0
   -1.0323   -0.7500    0.0000 C   0  0  0  0  0  0  0  0  0  0  0  0
    0.3943   -1.2135    0.0000 N   0  0  0  0  0  0  0  0  0  0  0  0
    5.0260   -1.2990    0.0000 C   0  0  0  0  0  0  0  0  0  0  0  0
    5.7760    0.0000    0.0000 O   0  0  0  0  0  0  0  0  0  0  0  0
    3.5260   -3.8971    0.0000 R#  0  0  0  0  0  0  0  0  0  0  0  0
    5.7760   -2.5981    0.0000 R#  0  0  0  0  0  0  0  0  0  0  0  0
 11  1  1  0
  1  2  1  0
  2  3  1  1
  3  4  1  0
  4  5  2  0
  5  6  1  0
  6  7  1  0
  7  8  2  0
  2  9  1  0
  9 12  1  0
  9 10  2  0
  8  4  1  0
M  RGP  2  11   1  12   2
V   11 *
V   12 *
M  END
>  <m_name>  (75)
Histidine

>  <symbol>  (75)
H

>  <m_abbr>  (75)
H

>  <m_type>  (75)
aa

>  <m_subtype>  (75)
non-natural

>  <m_RgroupIdx>  (75)
10,11,None,None

>  <m_Rgroups>  (75)
H,OH,None,None

>  <m_attachmentPointIdx>  (75)
0,8,None,None

>  <natAnalog>  (75)
H

$$$$

     RDKit          2D

 14 14  0  0  0  0  0  0  0  0999 V2000
    6.0000    0.0000    0.0000 N   0  0  0  0  0  0  0  0  0  0  0  0
    5.2500   -1.2990    0.0000 C   0  0  0  0  0  0  0  0  0  0  0  0
    3.7500   -1.2990    0.0000 C   0  0  0  0  0  0  0  0  0  0  0  0
    3.0000    0.0000    0.0000 C   0  0  0  0  0  0  0  0  0  0  0  0
    1.5000    0.0000    0.0000 C   0  0  0  0  0  0  0  0  0  0  0  0
    0.7500   -1.2990    0.0000 C   0  0  0  0  0  0  0  0  0  0  0  0
   -0.7500   -1.2990    0.0000 C   0  0  0  0  0  0  0  0  0  0  0  0
   -1.5000    0.0000    0.0000 C   0  0  0  0  0  0  0  0  0  0  0  0
   -0.7500    1.2990    0.0000 C   0  0  0  0  0  0  0  0  0  0  0  0
    0.7500    1.2990    0.0000 C   0  0  0  0  0  0  0  0  0  0  0  0
    6.0000   -2.5981    0.0000 C   0  0  0  0  0  0  0  0  0  0  0  0
    5.2500   -3.8971    0.0000 O   0  0  0  0  0  0  0  0  0  0  0  0
    7.5000    0.0000    0.0000 R#  0  0  0  0  0  0  0  0  0  0  0  0
    7.5000   -2.5981    0.0000 R#  0  0  0  0  0  0  0  0  0  0  0  0
 13  1  1  0
  1  2  1  0
  2  3  1  6
  3  4  1  0
  4  5  1  0
  5  6  2  0
  6  7  1  0
  7  8  2  0
  8  9  1  0
  9 10  2  0
  2 11  1  0
 11 14  1  0
 11 12  2  0
 10  5  1  0
M  RGP  2  13   1  14   2
V   13 *
V   14 *
M  END
>  <m_name>  (76)
Homophenylalanine

>  <symbol>  (76)
Hph

>  <m_abbr>  (76)
Hph

>  <m_type>  (76)
aa

>  <m_subtype>  (76)
non-natural

>  <m_RgroupIdx>  (76)
12,13,None,None

>  <m_Rgroups>  (76)
H,OH,None,None

>  <m_attachmentPointIdx>  (76)
0,10,None,None

>  <natAnalog>  (76)
F

$$$$

     RDKit          2D

 15 15  0  0  0  0  0  0  0  0999 V2000
    5.2500    1.2990    0.0000 C   0  0  0  0  0  0  0  0  0  0  0  0
    6.0000    0.0000    0.0000 N   0  0  0  0  0  0  0  0  0  0  0  0
    5.2500   -1.2990    0.0000 C   0  0  0  0  0  0  0  0  0  0  0  0
    3.7500   -1.2990    0.0000 C   0  0  0  0  0  0  0  0  0  0  0  0
    3.0000    0.0000    0.0000 C   0  0  0  0  0  0  0  0  0  0  0  0
    1.5000    0.0000    0.0000 C   0  0  0  0  0  0  0  0  0  0  0  0
    0.7500   -1.2990    0.0000 C   0  0  0  0  0  0  0  0  0  0  0  0
   -0.7500   -1.2990    0.0000 C   0  0  0  0  0  0  0  0  0  0  0  0
   -1.5000    0.0000    0.0000 C   0  0  0  0  0  0  0  0  0  0  0  0
   -0.7500    1.2990    0.0000 C   0  0  0  0  0  0  0  0  0  0  0  0
    0.7500    1.2990    0.0000 C   0  0  0  0  0  0  0  0  0  0  0  0
    6.0000   -2.5981    0.0000 C   0  0  0  0  0  0  0  0  0  0  0  0
    5.2500   -3.8971    0.0000 O   0  0  0  0  0  0  0  0  0  0  0  0
    7.5000    0.0000    0.0000 R#  0  0  0  0  0  0  0  0  0  0  0  0
    7.5000   -2.5981    0.0000 R#  0  0  0  0  0  0  0  0  0  0  0  0
  1  2  1  0
  2 14  1  0
  2  3  1  0
  3  4  1  6
  4  5  1  0
  5  6  1  0
  6  7  2  0
  7  8  1  0
  8  9  2  0
  9 10  1  0
 10 11  2  0
  3 12  1  0
 12 15  1  0
 12 13  2  0
 11  6  1  0
M  RGP  2  14   1  15   2
V   14 *
V   15 *
M  END
>  <m_name>  (77)
N-methyl-L-homophenylalanine

>  <symbol>  (77)
Me_Hph

>  <m_abbr>  (77)
Me_Hph

>  <m_type>  (77)
aa

>  <m_subtype>  (77)
non-natural

>  <m_RgroupIdx>  (77)
13,14,None,None

>  <m_Rgroups>  (77)
H,OH,None,None

>  <m_attachmentPointIdx>  (77)
1,11,None,None

>  <natAnalog>  (77)
F

$$$$

     RDKit          2D

 14 14  0  0  0  0  0  0  0  0999 V2000
    3.0000   -2.5981    0.0000 N   0  0  0  0  0  0  0  0  0  0  0  0
    3.7500   -1.2990    0.0000 C   0  0  0  0  0  0  0  0  0  0  0  0
    5.2500   -1.2990    0.0000 C   0  0  0  0  0  0  0  0  0  0  0  0
    6.0000   -2.5981    0.0000 C   0  0  0  0  0  0  0  0  0  0  0  0
    5.2500   -3.8971    0.0000 O   0  0  0  0  0  0  0  0  0  0  0  0
    3.0000    0.0000    0.0000 C   0  0  0  0  0  0  0  0  0  0  0  0
    1.5000    0.0000    0.0000 C   0  0  0  0  0  0  0  0  0  0  0  0
    0.7500   -1.2990    0.0000 C   0  0  0  0  0  0  0  0  0  0  0  0
   -0.7500   -1.2990    0.0000 C   0  0  0  0  0  0  0  0  0  0  0  0
   -1.5000    0.0000    0.0000 C   0  0  0  0  0  0  0  0  0  0  0  0
   -0.7500    1.2990    0.0000 C   0  0  0  0  0  0  0  0  0  0  0  0
    0.7500    1.2990    0.0000 C   0  0  0  0  0  0  0  0  0  0  0  0
    3.7500   -3.8971    0.0000 R#  0  0  0  0  0  0  0  0  0  0  0  0
    7.5000   -2.5981    0.0000 R#  0  0  0  0  0  0  0  0  0  0  0  0
 13  1  1  0
  1  2  1  0
  2  3  1  1
  3  4  1  0
  4 14  1  0
  4  5  2  0
  2  6  1  0
  6  7  1  0
  7  8  2  0
  8  9  1  0
  9 10  2  0
 10 11  1  0
 11 12  2  0
 12  7  1  0
M  RGP  2  13   1  14   2
V   13 *
V   14 *
M  END
>  <m_name>  (78)
beta-homophenylalanine

>  <symbol>  (78)
bHph

>  <m_abbr>  (78)
bHph

>  <m_type>  (78)
aa

>  <m_subtype>  (78)
non-natural

>  <m_RgroupIdx>  (78)
12,13,None,None

>  <m_Rgroups>  (78)
H,OH,None,None

>  <m_attachmentPointIdx>  (78)
0,3,None,None

>  <natAnalog>  (78)
F

$$$$

     RDKit          2D

 15 15  0  0  0  0  0  0  0  0999 V2000
    6.0000    0.0000    0.0000 N   0  0  0  0  0  0  0  0  0  0  0  0
    5.2500   -1.2990    0.0000 C   0  0  0  0  0  0  0  0  0  0  0  0
    3.7500   -1.2990    0.0000 C   0  0  0  0  0  0  0  0  0  0  0  0
    3.0000    0.0000    0.0000 C   0  0  0  0  0  0  0  0  0  0  0  0
    1.5000    0.0000    0.0000 C   0  0  0  0  0  0  0  0  0  0  0  0
    0.7500   -1.2990    0.0000 C   0  0  0  0  0  0  0  0  0  0  0  0
   -0.7500   -1.2990    0.0000 C   0  0  0  0  0  0  0  0  0  0  0  0
   -1.5000    0.0000    0.0000 C   0  0  0  0  0  0  0  0  0  0  0  0
   -0.7500    1.2990    0.0000 C   0  0  0  0  0  0  0  0  0  0  0  0
    0.7500    1.2990    0.0000 C   0  0  0  0  0  0  0  0  0  0  0  0
    1.5000    2.5981    0.0000 Cl  0  0  0  0  0  0  0  0  0  0  0  0
    6.0000   -2.5981    0.0000 C   0  0  0  0  0  0  0  0  0  0  0  0
    5.2500   -3.8971    0.0000 O   0  0  0  0  0  0  0  0  0  0  0  0
    7.5000    0.0000    0.0000 R#  0  0  0  0  0  0  0  0  0  0  0  0
    7.5000   -2.5981    0.0000 R#  0  0  0  0  0  0  0  0  0  0  0  0
 14  1  1  0
  1  2  1  0
  2  3  1  6
  3  4  1  0
  4  5  1  0
  5  6  2  0
  6  7  1  0
  7  8  2  0
  8  9  1  0
  9 10  2  0
 10 11  1  0
  2 12  1  0
 12 15  1  0
 12 13  2  0
 10  5  1  0
M  RGP  2  14   1  15   2
V   14 *
V   15 *
M  END
>  <m_name>  (79)
2-chloro-L-homophenylalanine

>  <symbol>  (79)
Hph(2-Cl)

>  <m_abbr>  (79)
Hph(2-Cl)

>  <m_type>  (79)
aa

>  <m_subtype>  (79)
non-natural

>  <m_RgroupIdx>  (79)
13,14,None,None

>  <m_Rgroups>  (79)
H,OH,None,None

>  <m_attachmentPointIdx>  (79)
0,11,None,None

>  <natAnalog>  (79)
F

$$$$

     RDKit          2D

 15 15  0  0  0  0  0  0  0  0999 V2000
    6.0000    0.0000    0.0000 N   0  0  0  0  0  0  0  0  0  0  0  0
    5.2500   -1.2990    0.0000 C   0  0  0  0  0  0  0  0  0  0  0  0
    3.7500   -1.2990    0.0000 C   0  0  0  0  0  0  0  0  0  0  0  0
    3.0000    0.0000    0.0000 C   0  0  0  0  0  0  0  0  0  0  0  0
    1.5000    0.0000    0.0000 C   0  0  0  0  0  0  0  0  0  0  0  0
    0.7500   -1.2990    0.0000 C   0  0  0  0  0  0  0  0  0  0  0  0
   -0.7500   -1.2990    0.0000 C   0  0  0  0  0  0  0  0  0  0  0  0
   -1.5000    0.0000    0.0000 C   0  0  0  0  0  0  0  0  0  0  0  0
   -0.7500    1.2990    0.0000 C   0  0  0  0  0  0  0  0  0  0  0  0
   -1.5000    2.5981    0.0000 Cl  0  0  0  0  0  0  0  0  0  0  0  0
    0.7500    1.2990    0.0000 C   0  0  0  0  0  0  0  0  0  0  0  0
    6.0000   -2.5981    0.0000 C   0  0  0  0  0  0  0  0  0  0  0  0
    5.2500   -3.8971    0.0000 O   0  0  0  0  0  0  0  0  0  0  0  0
    7.5000    0.0000    0.0000 R#  0  0  0  0  0  0  0  0  0  0  0  0
    7.5000   -2.5981    0.0000 R#  0  0  0  0  0  0  0  0  0  0  0  0
 14  1  1  0
  1  2  1  0
  2  3  1  6
  3  4  1  0
  4  5  1  0
  5  6  2  0
  6  7  1  0
  7  8  2  0
  8  9  1  0
  9 10  1  0
  9 11  2  0
  2 12  1  0
 12 15  1  0
 12 13  2  0
 11  5  1  0
M  RGP  2  14   1  15   2
V   14 *
V   15 *
M  END
>  <m_name>  (80)
3-chloro-L-homophenylalanine

>  <symbol>  (80)
Hph(3-Cl)

>  <m_abbr>  (80)
Hph(3-Cl)

>  <m_type>  (80)
aa

>  <m_subtype>  (80)
non-natural

>  <m_RgroupIdx>  (80)
13,14,None,None

>  <m_Rgroups>  (80)
H,OH,None,None

>  <m_attachmentPointIdx>  (80)
0,11,None,None

>  <natAnalog>  (80)
F

$$$$

     RDKit          2D

 15 15  0  0  0  0  0  0  0  0999 V2000
    6.0000    0.0000    0.0000 N   0  0  0  0  0  0  0  0  0  0  0  0
    5.2500   -1.2990    0.0000 C   0  0  0  0  0  0  0  0  0  0  0  0
    3.7500   -1.2990    0.0000 C   0  0  0  0  0  0  0  0  0  0  0  0
    3.0000    0.0000    0.0000 C   0  0  0  0  0  0  0  0  0  0  0  0
    1.5000    0.0000    0.0000 C   0  0  0  0  0  0  0  0  0  0  0  0
    0.7500   -1.2990    0.0000 C   0  0  0  0  0  0  0  0  0  0  0  0
   -0.7500   -1.2990    0.0000 C   0  0  0  0  0  0  0  0  0  0  0  0
   -1.5000    0.0000    0.0000 C   0  0  0  0  0  0  0  0  0  0  0  0
   -3.0000    0.0000    0.0000 Cl  0  0  0  0  0  0  0  0  0  0  0  0
   -0.7500    1.2990    0.0000 C   0  0  0  0  0  0  0  0  0  0  0  0
    0.7500    1.2990    0.0000 C   0  0  0  0  0  0  0  0  0  0  0  0
    6.0000   -2.5981    0.0000 C   0  0  0  0  0  0  0  0  0  0  0  0
    5.2500   -3.8971    0.0000 O   0  0  0  0  0  0  0  0  0  0  0  0
    7.5000    0.0000    0.0000 R#  0  0  0  0  0  0  0  0  0  0  0  0
    7.5000   -2.5981    0.0000 R#  0  0  0  0  0  0  0  0  0  0  0  0
 14  1  1  0
  1  2  1  0
  2  3  1  6
  3  4  1  0
  4  5  1  0
  5  6  2  0
  6  7  1  0
  7  8  2  0
  8  9  1  0
  8 10  1  0
 10 11  2  0
  2 12  1  0
 12 15  1  0
 12 13  2  0
 11  5  1  0
M  RGP  2  14   1  15   2
V   14 *
V   15 *
M  END
>  <m_name>  (81)
4-chloro-L-homophenylalanine

>  <symbol>  (81)
Hph(4-Cl)

>  <m_abbr>  (81)
Hph(4-Cl)

>  <m_type>  (81)
aa

>  <m_subtype>  (81)
non-natural

>  <m_RgroupIdx>  (81)
13,14,None,None

>  <m_Rgroups>  (81)
H,OH,None,None

>  <m_attachmentPointIdx>  (81)
0,11,None,None

>  <natAnalog>  (81)
F

$$$$

     RDKit          2D

 11 10  0  0  0  0  0  0  0  0999 V2000
    9.0933    0.7500    0.0000 C   0  0  0  0  0  0  0  0  0  0  0  0
    7.7942   -0.0000    0.0000 C   0  0  0  0  0  0  0  0  0  0  0  0
    6.4952    0.7500    0.0000 O   0  0  0  0  0  0  0  0  0  0  0  0
    5.1962   -0.0000    0.0000 C   0  0  0  0  0  0  0  0  0  0  0  0
    3.8971    0.7500    0.0000 C   0  0  0  0  0  0  0  0  0  0  0  0
    2.5981   -0.0000    0.0000 C   0  0  0  0  0  0  0  0  0  0  0  0
    1.2990    0.7500    0.0000 N   0  0  0  0  0  0  0  0  0  0  0  0
    2.5981   -1.5000    0.0000 C   0  0  0  0  0  0  0  0  0  0  0  0
    1.2990   -2.2500    0.0000 O   0  0  0  0  0  0  0  0  0  0  0  0
    0.0000    0.0000    0.0000 R#  0  0  0  0  0  0  0  0  0  0  0  0
    3.8971   -2.2500    0.0000 R#  0  0  0  0  0  0  0  0  0  0  0  0
  1  2  1  0
  2  3  1  0
  3  4  1  0
  4  5  1  0
  6  5  1  1
  6  7  1  0
  7 10  1  0
  6  8  1  0
  8 11  1  0
  8  9  2  0
M  RGP  2  10   1  11   2
V   10 *
V   11 *
M  END
>  <m_name>  (82)
O-ethyl-L-homoserine

>  <symbol>  (82)
Hse(Et)

>  <m_abbr>  (82)
Hse(Et)

>  <m_type>  (82)
aa

>  <m_subtype>  (82)
non-natural

>  <m_RgroupIdx>  (82)
9,10,None,None

>  <m_Rgroups>  (82)
H,OH,None,None

>  <m_attachmentPointIdx>  (82)
6,7,None,None

>  <natAnalog>  (82)
S

$$$$

     RDKit          2D

 10 10  0  0  0  0  0  0  0  0999 V2000
    2.7760    0.0000    0.0000 O   0  0  0  0  0  0  0  0  0  0  0  0
    1.2760    0.0000    0.0000 C   0  0  0  0  0  0  0  0  0  0  0  0
    0.3943    1.2135    0.0000 C   0  0  0  0  0  0  0  0  0  0  0  0
   -1.0323    0.7500    0.0000 C   0  0  0  0  0  0  0  0  0  0  0  0
   -1.0323   -0.7500    0.0000 N   0  0  0  0  0  0  0  0  0  0  0  0
    0.3943   -1.2135    0.0000 C   0  0  0  0  0  0  0  0  0  0  0  0
   -2.2458    1.6317    0.0000 C   0  0  0  0  0  0  0  0  0  0  0  0
   -3.6161    1.0216    0.0000 O   0  0  0  0  0  0  0  0  0  0  0  0
   -2.2458   -1.6317    0.0000 R#  0  0  0  0  0  0  0  0  0  0  0  0
   -2.0890    3.1235    0.0000 R#  0  0  0  0  0  0  0  0  0  0  0  0
  2  1  1  6
  2  3  1  0
  3  4  1  0
  4  5  1  0
  5  9  1  0
  5  6  1  0
  4  7  1  1
  7 10  1  0
  7  8  2  0
  6  2  1  0
M  RGP  2   9   1  10   2
V    9 *
V   10 *
M  END
>  <m_name>  (83)
4-hydroxy-D-proline

>  <symbol>  (83)
dHyp

>  <m_abbr>  (83)
dHyp

>  <m_type>  (83)
aa

>  <m_subtype>  (83)
non-natural

>  <m_RgroupIdx>  (83)
8,9,None,None

>  <m_Rgroups>  (83)
H,OH,None,None

>  <m_attachmentPointIdx>  (83)
4,6,None,None

>  <natAnalog>  (83)
P

$$$$

     RDKit          2D

 12 12  0  0  0  0  0  0  0  0999 V2000
    5.0260   -1.2990    0.0000 C   0  0  0  0  0  0  0  0  0  0  0  0
    3.5260   -1.2990    0.0000 C   0  0  0  0  0  0  0  0  0  0  0  0
    2.7760    0.0000    0.0000 O   0  0  0  0  0  0  0  0  0  0  0  0
    1.2760    0.0000    0.0000 C   0  0  0  0  0  0  0  0  0  0  0  0
    0.3943    1.2135    0.0000 C   0  0  0  0  0  0  0  0  0  0  0  0
   -1.0323    0.7500    0.0000 C   0  0  0  0  0  0  0  0  0  0  0  0
   -2.2458    1.6317    0.0000 C   0  0  0  0  0  0  0  0  0  0  0  0
   -3.6161    1.0216    0.0000 O   0  0  0  0  0  0  0  0  0  0  0  0
   -1.0323   -0.7500    0.0000 N   0  0  0  0  0  0  0  0  0  0  0  0
    0.3943   -1.2135    0.0000 C   0  0  0  0  0  0  0  0  0  0  0  0
   -2.2458   -1.6317    0.0000 R#  0  0  0  0  0  0  0  0  0  0  0  0
   -2.0890    3.1235    0.0000 R#  0  0  0  0  0  0  0  0  0  0  0  0
  1  2  1  0
  2  3  1  0
  4  3  1  1
  4  5  1  0
  5  6  1  0
  6  7  1  6
  7 12  1  0
  7  8  2  0
  6  9  1  0
  9 11  1  0
  9 10  1  0
 10  4  1  0
M  RGP  2  11   1  12   2
V   11 *
V   12 *
M  END
>  <m_name>  (84)
(4R)-4-(ethyloxy)-L-proline

>  <symbol>  (84)
Hyp(Et)

>  <m_abbr>  (84)
Hyp(Et)

>  <m_type>  (84)
aa

>  <m_subtype>  (84)
non-natural

>  <m_RgroupIdx>  (84)
10,11,None,None

>  <m_Rgroups>  (84)
H,OH,None,None

>  <m_attachmentPointIdx>  (84)
8,6,None,None

>  <natAnalog>  (84)
P

$$$$

     RDKit          2D

 10  9  0  0  0  0  0  0  0  0999 V2000
    5.1962    3.0000    0.0000 C   0  0  0  0  0  0  0  0  0  0  0  0
    3.8971    2.2500    0.0000 C   0  0  0  0  0  0  0  0  0  0  0  0
    3.8971    0.7500    0.0000 C   0  0  0  0  0  0  0  0  0  0  0  0
    5.1962   -0.0000    0.0000 C   0  0  0  0  0  0  0  0  0  0  0  0
    2.5981   -0.0000    0.0000 C   0  0  0  0  0  0  0  0  0  0  0  0
    1.2990    0.7500    0.0000 N   0  0  0  0  0  0  0  0  0  0  0  0
    2.5981   -1.5000    0.0000 C   0  0  0  0  0  0  0  0  0  0  0  0
    1.2990   -2.2500    0.0000 O   0  0  0  0  0  0  0  0  0  0  0  0
    0.0000    0.0000    0.0000 R#  0  0  0  0  0  0  0  0  0  0  0  0
    3.8971   -2.2500    0.0000 R#  0  0  0  0  0  0  0  0  0  0  0  0
  1  2  1  0
  2  3  1  0
  3  4  1  6
  3  5  1  0
  5  6  1  1
  6  9  1  0
  5  7  1  0
  7 10  1  0
  7  8  2  0
M  RGP  2   9   1  10   2
V    9 *
V   10 *
M  END
>  <m_name>  (85)
Isoleucine

>  <symbol>  (85)
I

>  <m_abbr>  (85)
I

>  <m_type>  (85)
aa

>  <m_subtype>  (85)
non-natural

>  <m_RgroupIdx>  (85)
8,9,None,None

>  <m_Rgroups>  (85)
H,OH,None,None

>  <m_attachmentPointIdx>  (85)
5,6,None,None

>  <natAnalog>  (85)
I

$$$$

     RDKit          2D

 10  9  0  0  0  0  0  0  0  0999 V2000
    5.1962    3.0000    0.0000 C   0  0  0  0  0  0  0  0  0  0  0  0
    3.8971    2.2500    0.0000 C   0  0  0  0  0  0  0  0  0  0  0  0
    3.8971    0.7500    0.0000 C   0  0  0  0  0  0  0  0  0  0  0  0
    5.1962   -0.0000    0.0000 C   0  0  0  0  0  0  0  0  0  0  0  0
    2.5981   -0.0000    0.0000 C   0  0  0  0  0  0  0  0  0  0  0  0
    1.2990    0.7500    0.0000 N   0  0  0  0  0  0  0  0  0  0  0  0
    2.5981   -1.5000    0.0000 C   0  0  0  0  0  0  0  0  0  0  0  0
    1.2990   -2.2500    0.0000 O   0  0  0  0  0  0  0  0  0  0  0  0
    0.0000    0.0000    0.0000 R#  0  0  0  0  0  0  0  0  0  0  0  0
    3.8971   -2.2500    0.0000 R#  0  0  0  0  0  0  0  0  0  0  0  0
  1  2  1  0
  2  3  1  0
  3  4  1  1
  3  5  1  0
  5  6  1  6
  6  9  1  0
  5  7  1  0
  7 10  1  0
  7  8  2  0
M  RGP  2   9   1  10   2
V    9 *
V   10 *
M  END
>  <m_name>  (86)
D-isoleucine

>  <symbol>  (86)
dI

>  <m_abbr>  (86)
dI

>  <m_type>  (86)
aa

>  <m_subtype>  (86)
non-natural

>  <m_RgroupIdx>  (86)
8,9,None,None

>  <m_Rgroups>  (86)
H,OH,None,None

>  <m_attachmentPointIdx>  (86)
5,6,None,None

>  <natAnalog>  (86)
I

$$$$

     RDKit          2D

 11 10  0  0  0  0  0  0  0  0999 V2000
    5.1962    3.0000    0.0000 C   0  0  0  0  0  0  0  0  0  0  0  0
    3.8971    2.2500    0.0000 C   0  0  0  0  0  0  0  0  0  0  0  0
    2.5981    3.0000    0.0000 C   0  0  0  0  0  0  0  0  0  0  0  0
    2.5981    4.5000    0.0000 C   0  0  0  0  0  0  0  0  0  0  0  0
    1.2990    2.2500    0.0000 C   0  0  0  0  0  0  0  0  0  0  0  0
    1.2990    0.7500    0.0000 N   0  0  0  0  0  0  0  0  0  0  0  0
    2.5981   -0.0000    0.0000 C   0  0  0  0  0  0  0  0  0  0  0  0
    0.0000    3.0000    0.0000 C   0  0  0  0  0  0  0  0  0  0  0  0
   -1.2990    2.2500    0.0000 O   0  0  0  0  0  0  0  0  0  0  0  0
    0.0000    0.0000    0.0000 R#  0  0  0  0  0  0  0  0  0  0  0  0
    0.0000    4.5000    0.0000 R#  0  0  0  0  0  0  0  0  0  0  0  0
  1  2  1  0
  2  3  1  0
  3  4  1  1
  3  5  1  0
  5  6  1  6
  6  7  1  0
  6 10  1  0
  5  8  1  0
  8 11  1  0
  8  9  2  0
M  RGP  2  10   1  11   2
V   10 *
V   11 *
M  END
>  <m_name>  (87)
N-methyl-L-isoleucine

>  <symbol>  (87)
meI

>  <m_abbr>  (87)
meI

>  <m_type>  (87)
aa

>  <m_subtype>  (87)
non-natural

>  <m_RgroupIdx>  (87)
9,10,None,None

>  <m_Rgroups>  (87)
H,OH,None,None

>  <m_attachmentPointIdx>  (87)
5,7,None,None

>  <natAnalog>  (87)
I

$$$$

     RDKit          2D

 11 10  0  0  0  0  0  0  0  0999 V2000
    5.1962    3.0000    0.0000 C   0  0  0  0  0  0  0  0  0  0  0  0
    3.8971    2.2500    0.0000 C   0  0  0  0  0  0  0  0  0  0  0  0
    2.5981    3.0000    0.0000 C   0  0  0  0  0  0  0  0  0  0  0  0
    2.5981    4.5000    0.0000 C   0  0  0  0  0  0  0  0  0  0  0  0
    1.2990    2.2500    0.0000 C   0  0  0  0  0  0  0  0  0  0  0  0
    1.2990    0.7500    0.0000 N   0  0  0  0  0  0  0  0  0  0  0  0
    2.5981   -0.0000    0.0000 C   0  0  0  0  0  0  0  0  0  0  0  0
    0.0000    3.0000    0.0000 C   0  0  0  0  0  0  0  0  0  0  0  0
   -1.2990    2.2500    0.0000 O   0  0  0  0  0  0  0  0  0  0  0  0
    0.0000    0.0000    0.0000 R#  0  0  0  0  0  0  0  0  0  0  0  0
    0.0000    4.5000    0.0000 R#  0  0  0  0  0  0  0  0  0  0  0  0
  1  2  1  0
  2  3  1  0
  3  4  1  6
  3  5  1  0
  5  6  1  1
  6  7  1  0
  6 10  1  0
  5  8  1  0
  8 11  1  0
  8  9  2  0
M  RGP  2  10   1  11   2
V   10 *
V   11 *
M  END
>  <m_name>  (88)
N-methyl-D-isoleucine

>  <symbol>  (88)
Me_dI

>  <m_abbr>  (88)
Me_dI

>  <m_type>  (88)
aa

>  <m_subtype>  (88)
non-natural

>  <m_RgroupIdx>  (88)
9,10,None,None

>  <m_Rgroups>  (88)
H,OH,None,None

>  <m_attachmentPointIdx>  (88)
5,7,None,None

>  <natAnalog>  (88)
I

$$$$

     RDKit          2D

 10  9  0  0  0  0  0  0  0  0999 V2000
    5.1962    3.0000    0.0000 C   0  0  0  0  0  0  0  0  0  0  0  0
    3.8971    2.2500    0.0000 C   0  0  0  0  0  0  0  0  0  0  0  0
    3.8971    0.7500    0.0000 C   0  0  0  0  0  0  0  0  0  0  0  0
    5.1962   -0.0000    0.0000 C   0  0  0  0  0  0  0  0  0  0  0  0
    2.5981   -0.0000    0.0000 C   0  0  0  0  0  0  0  0  0  0  0  0
    1.2990    0.7500    0.0000 O   0  0  0  0  0  0  0  0  0  0  0  0
    2.5981   -1.5000    0.0000 C   0  0  0  0  0  0  0  0  0  0  0  0
    1.2990   -2.2500    0.0000 O   0  0  0  0  0  0  0  0  0  0  0  0
    0.0000    0.0000    0.0000 R#  0  0  0  0  0  0  0  0  0  0  0  0
    3.8971   -2.2500    0.0000 R#  0  0  0  0  0  0  0  0  0  0  0  0
  1  2  1  0
  2  3  1  0
  3  4  1  0
  3  5  1  0
  5  6  1  1
  6  9  1  0
  5  7  1  0
  7 10  1  0
  7  8  2  0
M  RGP  2   9   1  10   2
V    9 *
V   10 *
M  END
>  <symbol>  (89)
(N->O)xiIle

>  <m_abbr>  (89)
(N->O)xiIle

>  <m_type>  (89)
aa

>  <m_subtype>  (89)
non-natural

>  <m_RgroupIdx>  (89)
8,9,None,None

>  <m_Rgroups>  (89)
H,OH,None,None

>  <m_attachmentPointIdx>  (89)
5,6,None,None

>  <natAnalog>  (89)
I

$$$$

     RDKit          2D

 10  9  0  0  0  0  0  0  0  0999 V2000
    5.1962    3.0000    0.0000 C   0  0  0  0  0  0  0  0  0  0  0  0
    3.8971    2.2500    0.0000 C   0  0  0  0  0  0  0  0  0  0  0  0
    3.8971    0.7500    0.0000 C   0  0  0  0  0  0  0  0  0  0  0  0
    5.1962   -0.0000    0.0000 C   0  0  0  0  0  0  0  0  0  0  0  0
    2.5981   -0.0000    0.0000 C   0  0  0  0  0  0  0  0  0  0  0  0
    1.2990    0.7500    0.0000 O   0  0  0  0  0  0  0  0  0  0  0  0
    2.5981   -1.5000    0.0000 C   0  0  0  0  0  0  0  0  0  0  0  0
    1.2990   -2.2500    0.0000 O   0  0  0  0  0  0  0  0  0  0  0  0
    0.0000    0.0000    0.0000 R#  0  0  0  0  0  0  0  0  0  0  0  0
    3.8971   -2.2500    0.0000 R#  0  0  0  0  0  0  0  0  0  0  0  0
  1  2  1  0
  2  3  1  0
  3  4  1  6
  3  5  1  0
  5  6  1  6
  6  9  1  0
  5  7  1  0
  7 10  1  0
  7  8  2  0
M  RGP  2   9   1  10   2
V    9 *
V   10 *
M  END
>  <m_name>  (90)
D-alloisoleucic acid

>  <symbol>  (90)
d(N->O)aIle

>  <m_abbr>  (90)
d(N->O)aIle

>  <m_type>  (90)
aa

>  <m_subtype>  (90)
non-natural

>  <m_RgroupIdx>  (90)
8,9,None,None

>  <m_Rgroups>  (90)
H,OH,None,None

>  <m_attachmentPointIdx>  (90)
5,6,None,None

>  <natAnalog>  (90)
I

$$$$

     RDKit          2D

 12 11  0  0  0  0  0  0  0  0999 V2000
    1.2990    0.7500    0.0000 N   0  0  0  0  0  0  0  0  0  0  0  0
    2.5981   -0.0000    0.0000 C   0  0  0  0  0  0  0  0  0  0  0  0
    3.8971    0.7500    0.0000 C   0  0  0  0  0  0  0  0  0  0  0  0
    5.1962   -0.0000    0.0000 C   0  0  0  0  0  0  0  0  0  0  0  0
    6.4952    0.7500    0.0000 C   0  0  0  0  0  0  0  0  0  0  0  0
    7.7942   -0.0000    0.0000 C   0  0  0  0  0  0  0  0  0  0  0  0
    9.0933    0.7500    0.0000 N   0  0  0  0  0  0  0  0  0  0  0  0
    2.5981   -1.5000    0.0000 C   0  0  0  0  0  0  0  0  0  0  0  0
    1.2990   -2.2500    0.0000 O   0  0  0  0  0  0  0  0  0  0  0  0
    0.0000    0.0000    0.0000 R#  0  0  0  0  0  0  0  0  0  0  0  0
    3.8971   -2.2500    0.0000 R#  0  0  0  0  0  0  0  0  0  0  0  0
   10.3923   -0.0000    0.0000 R#  0  0  0  0  0  0  0  0  0  0  0  0
 10  1  1  0
  1  2  1  0
  2  3  1  1
  3  4  1  0
  4  5  1  0
  5  6  1  0
  6  7  1  0
  7 12  1  0
  2  8  1  0
  8 11  1  0
  8  9  2  0
M  RGP  3  10   1  11   2  12   3
V   10 *
V   11 *
V   12 *
M  END
>  <m_name>  (91)
Lysine

>  <symbol>  (91)
K

>  <m_abbr>  (91)
K

>  <m_type>  (91)
aa

>  <m_subtype>  (91)
non-natural

>  <m_RgroupIdx>  (91)
9,10,11,None

>  <m_Rgroups>  (91)
H,OH,H,None

>  <m_attachmentPointIdx>  (91)
0,7,6,None

>  <natAnalog>  (91)
K

$$$$

     RDKit          2D

 12 11  0  0  0  0  0  0  0  0999 V2000
    1.2990    0.7500    0.0000 N   0  0  0  0  0  0  0  0  0  0  0  0
    2.5981   -0.0000    0.0000 C   0  0  0  0  0  0  0  0  0  0  0  0
    3.8971    0.7500    0.0000 C   0  0  0  0  0  0  0  0  0  0  0  0
    5.1962   -0.0000    0.0000 C   0  0  0  0  0  0  0  0  0  0  0  0
    6.4952    0.7500    0.0000 C   0  0  0  0  0  0  0  0  0  0  0  0
    7.7942   -0.0000    0.0000 C   0  0  0  0  0  0  0  0  0  0  0  0
    9.0933    0.7500    0.0000 N   0  0  0  0  0  0  0  0  0  0  0  0
    2.5981   -1.5000    0.0000 C   0  0  0  0  0  0  0  0  0  0  0  0
    1.2990   -2.2500    0.0000 O   0  0  0  0  0  0  0  0  0  0  0  0
    0.0000    0.0000    0.0000 R#  0  0  0  0  0  0  0  0  0  0  0  0
    3.8971   -2.2500    0.0000 R#  0  0  0  0  0  0  0  0  0  0  0  0
   10.3923   -0.0000    0.0000 R#  0  0  0  0  0  0  0  0  0  0  0  0
 10  1  1  0
  1  2  1  0
  2  3  1  6
  3  4  1  0
  4  5  1  0
  5  6  1  0
  6  7  1  0
  7 12  1  0
  2  8  1  0
  8 11  1  0
  8  9  2  0
M  RGP  3  10   1  11   2  12   3
V   10 *
V   11 *
V   12 *
M  END
>  <m_name>  (92)
D-lysine

>  <symbol>  (92)
dK

>  <m_abbr>  (92)
dK

>  <m_type>  (92)
aa

>  <m_subtype>  (92)
non-natural

>  <m_RgroupIdx>  (92)
9,10,11,None

>  <m_Rgroups>  (92)
H,OH,H,None

>  <m_attachmentPointIdx>  (92)
0,7,6,None

>  <natAnalog>  (92)
K

$$$$

     RDKit          2D

 12 11  0  0  0  0  0  0  0  0999 V2000
    2.5981   -0.0000    0.0000 C   0  0  0  0  0  0  0  0  0  0  0  0
    1.2990    0.7500    0.0000 N   0  0  0  0  0  0  0  0  0  0  0  0
    1.2990    2.2500    0.0000 C   0  0  0  0  0  0  0  0  0  0  0  0
    2.5981    3.0000    0.0000 C   0  0  0  0  0  0  0  0  0  0  0  0
    2.5981    4.5000    0.0000 C   0  0  0  0  0  0  0  0  0  0  0  0
    3.8971    5.2500    0.0000 C   0  0  0  0  0  0  0  0  0  0  0  0
    3.8971    6.7500    0.0000 C   0  0  0  0  0  0  0  0  0  0  0  0
    5.1962    7.5000    0.0000 N   0  0  0  0  0  0  0  0  0  0  0  0
    0.0000    3.0000    0.0000 C   0  0  0  0  0  0  0  0  0  0  0  0
   -1.2990    2.2500    0.0000 O   0  0  0  0  0  0  0  0  0  0  0  0
    0.0000    0.0000    0.0000 R#  0  0  0  0  0  0  0  0  0  0  0  0
    0.0000    4.5000    0.0000 R#  0  0  0  0  0  0  0  0  0  0  0  0
  1  2  1  0
  2 11  1  0
  2  3  1  0
  3  4  1  6
  4  5  1  0
  5  6  1  0
  6  7  1  0
  7  8  1  0
  3  9  1  0
  9 12  1  0
  9 10  2  0
M  RGP  2  11   1  12   2
V   11 *
V   12 *
M  END
>  <m_name>  (93)
N-methyl-L-lysine

>  <symbol>  (93)
meK

>  <m_abbr>  (93)
meK

>  <m_type>  (93)
aa

>  <m_subtype>  (93)
non-natural

>  <m_RgroupIdx>  (93)
10,11,None,None

>  <m_Rgroups>  (93)
H,OH,None,None

>  <m_attachmentPointIdx>  (93)
1,8,None,None

>  <natAnalog>  (93)
K

$$$$

     RDKit          2D

 12 11  0  0  0  0  0  0  0  0999 V2000
    2.5981   -0.0000    0.0000 C   0  0  0  0  0  0  0  0  0  0  0  0
    1.2990    0.7500    0.0000 N   0  0  0  0  0  0  0  0  0  0  0  0
    1.2990    2.2500    0.0000 C   0  0  0  0  0  0  0  0  0  0  0  0
    2.5981    3.0000    0.0000 C   0  0  0  0  0  0  0  0  0  0  0  0
    2.5981    4.5000    0.0000 C   0  0  0  0  0  0  0  0  0  0  0  0
    3.8971    5.2500    0.0000 C   0  0  0  0  0  0  0  0  0  0  0  0
    3.8971    6.7500    0.0000 C   0  0  0  0  0  0  0  0  0  0  0  0
    5.1962    7.5000    0.0000 N   0  0  0  0  0  0  0  0  0  0  0  0
    0.0000    3.0000    0.0000 C   0  0  0  0  0  0  0  0  0  0  0  0
   -1.2990    2.2500    0.0000 O   0  0  0  0  0  0  0  0  0  0  0  0
    0.0000    0.0000    0.0000 R#  0  0  0  0  0  0  0  0  0  0  0  0
    0.0000    4.5000    0.0000 R#  0  0  0  0  0  0  0  0  0  0  0  0
  1  2  1  0
  2 11  1  0
  2  3  1  0
  3  4  1  1
  4  5  1  0
  5  6  1  0
  6  7  1  0
  7  8  1  0
  3  9  1  0
  9 12  1  0
  9 10  2  0
M  RGP  2  11   1  12   2
V   11 *
V   12 *
M  END
>  <m_name>  (94)
N-methyl-D-lysine

>  <symbol>  (94)
Me_dK

>  <m_abbr>  (94)
Me_dK

>  <m_type>  (94)
aa

>  <m_subtype>  (94)
non-natural

>  <m_RgroupIdx>  (94)
10,11,None,None

>  <m_Rgroups>  (94)
H,OH,None,None

>  <m_attachmentPointIdx>  (94)
1,8,None,None

>  <natAnalog>  (94)
K

$$$$

     RDKit          2D

 14 13  0  0  0  0  0  0  0  0999 V2000
   11.6913    0.7500    0.0000 C   0  0  0  0  0  0  0  0  0  0  0  0
   10.3923   -0.0000    0.0000 C   0  0  0  0  0  0  0  0  0  0  0  0
   10.3923   -1.5000    0.0000 O   0  0  0  0  0  0  0  0  0  0  0  0
    9.0933    0.7500    0.0000 N   0  0  0  0  0  0  0  0  0  0  0  0
    7.7942   -0.0000    0.0000 C   0  0  0  0  0  0  0  0  0  0  0  0
    6.4952    0.7500    0.0000 C   0  0  0  0  0  0  0  0  0  0  0  0
    5.1962   -0.0000    0.0000 C   0  0  0  0  0  0  0  0  0  0  0  0
    3.8971    0.7500    0.0000 C   0  0  0  0  0  0  0  0  0  0  0  0
    2.5981   -0.0000    0.0000 C   0  0  0  0  0  0  0  0  0  0  0  0
    1.2990    0.7500    0.0000 N   0  0  0  0  0  0  0  0  0  0  0  0
    2.5981   -1.5000    0.0000 C   0  0  0  0  0  0  0  0  0  0  0  0
    1.2990   -2.2500    0.0000 O   0  0  0  0  0  0  0  0  0  0  0  0
    0.0000    0.0000    0.0000 R#  0  0  0  0  0  0  0  0  0  0  0  0
    3.8971   -2.2500    0.0000 R#  0  0  0  0  0  0  0  0  0  0  0  0
  1  2  1  0
  2  3  2  0
  2  4  1  0
  4  5  1  0
  5  6  1  0
  6  7  1  0
  7  8  1  0
  9  8  1  1
  9 10  1  0
 10 13  1  0
  9 11  1  0
 11 14  1  0
 11 12  2  0
M  RGP  2  13   1  14   2
V   13 *
V   14 *
M  END
>  <m_name>  (95)
N6-acetyl-L-lysine

>  <symbol>  (95)
Lys(Ac)

>  <m_abbr>  (95)
Lys(Ac)

>  <m_type>  (95)
aa

>  <m_subtype>  (95)
non-natural

>  <m_RgroupIdx>  (95)
12,13,None,None

>  <m_Rgroups>  (95)
H,OH,None,None

>  <m_attachmentPointIdx>  (95)
9,10,None,None

>  <natAnalog>  (95)
K

$$$$

     RDKit          2D

 21 21  0  0  0  0  0  0  0  0999 V2000
   12.7500   -3.8971    0.0000 N   0  0  0  0  0  0  0  0  0  0  0  0
   12.0000   -5.1962    0.0000 C   0  0  0  0  0  0  0  0  0  0  0  0
   10.5000   -5.1962    0.0000 C   0  0  0  0  0  0  0  0  0  0  0  0
    9.7500   -3.8971    0.0000 C   0  0  0  0  0  0  0  0  0  0  0  0
    8.2500   -3.8971    0.0000 C   0  0  0  0  0  0  0  0  0  0  0  0
    7.5000   -2.5981    0.0000 C   0  0  0  0  0  0  0  0  0  0  0  0
    6.0000   -2.5981    0.0000 N   0  0  0  0  0  0  0  0  0  0  0  0
    5.2500   -1.2990    0.0000 C   0  0  0  0  0  0  0  0  0  0  0  0
    6.0000    0.0000    0.0000 O   0  0  0  0  0  0  0  0  0  0  0  0
    3.7500   -1.2990    0.0000 O   0  0  0  0  0  0  0  0  0  0  0  0
    3.0000    0.0000    0.0000 C   0  0  0  0  0  0  0  0  0  0  0  0
    1.5000    0.0000    0.0000 C   0  0  0  0  0  0  0  0  0  0  0  0
    0.7500   -1.2990    0.0000 C   0  0  0  0  0  0  0  0  0  0  0  0
   -0.7500   -1.2990    0.0000 C   0  0  0  0  0  0  0  0  0  0  0  0
   -1.5000    0.0000    0.0000 C   0  0  0  0  0  0  0  0  0  0  0  0
   -0.7500    1.2990    0.0000 C   0  0  0  0  0  0  0  0  0  0  0  0
    0.7500    1.2990    0.0000 C   0  0  0  0  0  0  0  0  0  0  0  0
   12.7500   -6.4952    0.0000 C   0  0  0  0  0  0  0  0  0  0  0  0
   12.0000   -7.7942    0.0000 O   0  0  0  0  0  0  0  0  0  0  0  0
   14.2500   -3.8971    0.0000 R#  0  0  0  0  0  0  0  0  0  0  0  0
   14.2500   -6.4952    0.0000 R#  0  0  0  0  0  0  0  0  0  0  0  0
 20  1  1  0
  1  2  1  0
  2  3  1  6
  3  4  1  0
  4  5  1  0
  5  6  1  0
  6  7  1  0
  7  8  1  0
  8  9  2  0
  8 10  1  0
 10 11  1  0
 11 12  1  0
 12 13  2  0
 13 14  1  0
 14 15  2  0
 15 16  1  0
 16 17  2  0
  2 18  1  0
 18 21  1  0
 18 19  2  0
 17 12  1  0
M  RGP  2  20   1  21   2
V   20 *
V   21 *
M  END
>  <m_name>  (96)
N6-benzyloxycarbonyl-L-lysine

>  <symbol>  (96)
Lys(Cbz)

>  <m_abbr>  (96)
Lys(Cbz)

>  <m_type>  (96)
aa

>  <m_subtype>  (96)
non-natural

>  <m_RgroupIdx>  (96)
19,20,None,None

>  <m_Rgroups>  (96)
H,OH,None,None

>  <m_attachmentPointIdx>  (96)
0,17,None,None

>  <natAnalog>  (96)
K

$$$$

     RDKit          2D

 14 13  0  0  0  0  0  0  0  0999 V2000
   11.6913    0.7500    0.0000 C   0  0  0  0  0  0  0  0  0  0  0  0
   10.3923   -0.0000    0.0000 C   0  0  0  0  0  0  0  0  0  0  0  0
   10.3923   -1.5000    0.0000 C   0  0  0  0  0  0  0  0  0  0  0  0
    9.0933    0.7500    0.0000 N   0  0  0  0  0  0  0  0  0  0  0  0
    7.7942   -0.0000    0.0000 C   0  0  0  0  0  0  0  0  0  0  0  0
    6.4952    0.7500    0.0000 C   0  0  0  0  0  0  0  0  0  0  0  0
    5.1962   -0.0000    0.0000 C   0  0  0  0  0  0  0  0  0  0  0  0
    3.8971    0.7500    0.0000 C   0  0  0  0  0  0  0  0  0  0  0  0
    2.5981   -0.0000    0.0000 C   0  0  0  0  0  0  0  0  0  0  0  0
    1.2990    0.7500    0.0000 N   0  0  0  0  0  0  0  0  0  0  0  0
    2.5981   -1.5000    0.0000 C   0  0  0  0  0  0  0  0  0  0  0  0
    1.2990   -2.2500    0.0000 O   0  0  0  0  0  0  0  0  0  0  0  0
    0.0000    0.0000    0.0000 R#  0  0  0  0  0  0  0  0  0  0  0  0
    3.8971   -2.2500    0.0000 R#  0  0  0  0  0  0  0  0  0  0  0  0
  1  2  1  0
  2  3  1  0
  2  4  1  0
  4  5  1  0
  5  6  1  0
  6  7  1  0
  7  8  1  0
  9  8  1  1
  9 10  1  0
 10 13  1  0
  9 11  1  0
 11 14  1  0
 11 12  2  0
M  RGP  2  13   1  14   2
V   13 *
V   14 *
M  END
>  <m_name>  (97)
N6-isopropyl-L-lysine

>  <symbol>  (97)
Lys(iPr)

>  <m_abbr>  (97)
Lys(iPr)

>  <m_type>  (97)
aa

>  <m_subtype>  (97)
non-natural

>  <m_RgroupIdx>  (97)
12,13,None,None

>  <m_Rgroups>  (97)
H,OH,None,None

>  <m_attachmentPointIdx>  (97)
9,10,None,None

>  <natAnalog>  (97)
K

$$$$

     RDKit          2D

 12 11  0  0  0  0  0  0  0  0999 V2000
   10.3923   -0.0000    0.0000 C   0  0  0  0  0  0  0  0  0  0  0  0
    9.0933    0.7500    0.0000 N   0  0  0  0  0  0  0  0  0  0  0  0
    7.7942   -0.0000    0.0000 C   0  0  0  0  0  0  0  0  0  0  0  0
    6.4952    0.7500    0.0000 C   0  0  0  0  0  0  0  0  0  0  0  0
    5.1962   -0.0000    0.0000 C   0  0  0  0  0  0  0  0  0  0  0  0
    3.8971    0.7500    0.0000 C   0  0  0  0  0  0  0  0  0  0  0  0
    2.5981   -0.0000    0.0000 C   0  0  0  0  0  0  0  0  0  0  0  0
    1.2990    0.7500    0.0000 N   0  0  0  0  0  0  0  0  0  0  0  0
    2.5981   -1.5000    0.0000 C   0  0  0  0  0  0  0  0  0  0  0  0
    1.2990   -2.2500    0.0000 O   0  0  0  0  0  0  0  0  0  0  0  0
    0.0000    0.0000    0.0000 R#  0  0  0  0  0  0  0  0  0  0  0  0
    3.8971   -2.2500    0.0000 R#  0  0  0  0  0  0  0  0  0  0  0  0
  1  2  1  0
  2  3  1  0
  3  4  1  0
  4  5  1  0
  5  6  1  0
  7  6  1  1
  7  8  1  0
  8 11  1  0
  7  9  1  0
  9 12  1  0
  9 10  2  0
M  RGP  2  11   1  12   2
V   11 *
V   12 *
M  END
>  <m_name>  (98)
N6-methyl-L-lysine

>  <symbol>  (98)
Lys(Me)

>  <m_abbr>  (98)
Lys(Me)

>  <m_type>  (98)
aa

>  <m_subtype>  (98)
non-natural

>  <m_RgroupIdx>  (98)
10,11,None,None

>  <m_Rgroups>  (98)
H,OH,None,None

>  <m_attachmentPointIdx>  (98)
7,8,None,None

>  <natAnalog>  (98)
K

$$$$

     RDKit          2D

 13 12  0  0  0  0  0  0  0  0999 V2000
    5.1962    9.0000    0.0000 C   0  0  0  0  0  0  0  0  0  0  0  0
    5.1962    7.5000    0.0000 N   0  0  0  0  0  0  0  0  0  0  0  0
    3.8971    6.7500    0.0000 C   0  0  0  0  0  0  0  0  0  0  0  0
    3.8971    5.2500    0.0000 C   0  0  0  0  0  0  0  0  0  0  0  0
    2.5981    4.5000    0.0000 C   0  0  0  0  0  0  0  0  0  0  0  0
    2.5981    3.0000    0.0000 C   0  0  0  0  0  0  0  0  0  0  0  0
    1.2990    2.2500    0.0000 C   0  0  0  0  0  0  0  0  0  0  0  0
    1.2990    0.7500    0.0000 N   0  0  0  0  0  0  0  0  0  0  0  0
    2.5981   -0.0000    0.0000 C   0  0  0  0  0  0  0  0  0  0  0  0
    0.0000    3.0000    0.0000 C   0  0  0  0  0  0  0  0  0  0  0  0
   -1.2990    2.2500    0.0000 O   0  0  0  0  0  0  0  0  0  0  0  0
    0.0000    0.0000    0.0000 R#  0  0  0  0  0  0  0  0  0  0  0  0
    0.0000    4.5000    0.0000 R#  0  0  0  0  0  0  0  0  0  0  0  0
  1  2  1  0
  2  3  1  0
  3  4  1  0
  4  5  1  0
  5  6  1  0
  7  6  1  6
  7  8  1  0
  8  9  1  0
  8 12  1  0
  7 10  1  0
 10 13  1  0
 10 11  2  0
M  RGP  2  12   1  13   2
V   12 *
V   13 *
M  END
>  <m_name>  (99)
N-methyl-N6-methyl-L-lysine

>  <symbol>  (99)
Me_Lys(Me)

>  <m_abbr>  (99)
Me_Lys(Me)

>  <m_type>  (99)
aa

>  <m_subtype>  (99)
non-natural

>  <m_RgroupIdx>  (99)
11,12,None,None

>  <m_Rgroups>  (99)
H,OH,None,None

>  <m_attachmentPointIdx>  (99)
7,9,None,None

>  <natAnalog>  (99)
K

$$$$

     RDKit          2D

 13 12  0  0  0  0  0  0  0  0999 V2000
   10.3923   -0.0000    0.0000 C   0  0  0  0  0  0  0  0  0  0  0  0
    9.0933    0.7500    0.0000 N   0  0  0  0  0  0  0  0  0  0  0  0
    9.0933    2.2500    0.0000 C   0  0  0  0  0  0  0  0  0  0  0  0
    7.7942   -0.0000    0.0000 C   0  0  0  0  0  0  0  0  0  0  0  0
    6.4952    0.7500    0.0000 C   0  0  0  0  0  0  0  0  0  0  0  0
    5.1962   -0.0000    0.0000 C   0  0  0  0  0  0  0  0  0  0  0  0
    3.8971    0.7500    0.0000 C   0  0  0  0  0  0  0  0  0  0  0  0
    2.5981   -0.0000    0.0000 C   0  0  0  0  0  0  0  0  0  0  0  0
    1.2990    0.7500    0.0000 N   0  0  0  0  0  0  0  0  0  0  0  0
    2.5981   -1.5000    0.0000 C   0  0  0  0  0  0  0  0  0  0  0  0
    1.2990   -2.2500    0.0000 O   0  0  0  0  0  0  0  0  0  0  0  0
    0.0000    0.0000    0.0000 R#  0  0  0  0  0  0  0  0  0  0  0  0
    3.8971   -2.2500    0.0000 R#  0  0  0  0  0  0  0  0  0  0  0  0
  1  2  1  0
  2  3  1  0
  2  4  1  0
  4  5  1  0
  5  6  1  0
  6  7  1  0
  8  7  1  1
  8  9  1  0
  9 12  1  0
  8 10  1  0
 10 13  1  0
 10 11  2  0
M  RGP  2  12   1  13   2
V   12 *
V   13 *
M  END
>  <m_name>  (100)
N6,N6-dimethyl-L-lysine

>  <symbol>  (100)
Lys(Me2)

>  <m_abbr>  (100)
Lys(Me2)

>  <m_type>  (100)
aa

>  <m_subtype>  (100)
non-natural

>  <m_RgroupIdx>  (100)
11,12,None,None

>  <m_Rgroups>  (100)
H,OH,None,None

>  <m_attachmentPointIdx>  (100)
8,9,None,None

>  <natAnalog>  (100)
K

$$$$

     RDKit          2D

 17 16  0  0  0  0  0  0  0  0999 V2000
    1.2990    0.7500    0.0000 N   0  0  0  0  0  0  0  0  0  0  0  0
    2.5981   -0.0000    0.0000 C   0  0  0  0  0  0  0  0  0  0  0  0
    3.8971    0.7500    0.0000 C   0  0  0  0  0  0  0  0  0  0  0  0
    5.1962   -0.0000    0.0000 C   0  0  0  0  0  0  0  0  0  0  0  0
    6.4952    0.7500    0.0000 C   0  0  0  0  0  0  0  0  0  0  0  0
    7.7942   -0.0000    0.0000 C   0  0  0  0  0  0  0  0  0  0  0  0
    9.0933    0.7500    0.0000 N   0  0  0  0  0  0  0  0  0  0  0  0
   10.3923   -0.0000    0.0000 C   0  0  0  0  0  0  0  0  0  0  0  0
   10.3923   -1.5000    0.0000 O   0  0  0  0  0  0  0  0  0  0  0  0
   11.6913    0.7500    0.0000 C   0  0  0  0  0  0  0  0  0  0  0  0
   12.9904    1.5000    0.0000 F   0  0  0  0  0  0  0  0  0  0  0  0
   12.4413   -0.5490    0.0000 F   0  0  0  0  0  0  0  0  0  0  0  0
   10.9413    2.0490    0.0000 F   0  0  0  0  0  0  0  0  0  0  0  0
    2.5981   -1.5000    0.0000 C   0  0  0  0  0  0  0  0  0  0  0  0
    1.2990   -2.2500    0.0000 O   0  0  0  0  0  0  0  0  0  0  0  0
    0.0000    0.0000    0.0000 R#  0  0  0  0  0  0  0  0  0  0  0  0
    3.8971   -2.2500    0.0000 R#  0  0  0  0  0  0  0  0  0  0  0  0
 16  1  1  0
  1  2  1  0
  2  3  1  1
  3  4  1  0
  4  5  1  0
  5  6  1  0
  6  7  1  0
  7  8  1  0
  8  9  2  0
  8 10  1  0
 10 11  1  0
 10 12  1  0
 10 13  1  0
  2 14  1  0
 14 17  1  0
 14 15  2  0
M  RGP  2  16   1  17   2
V   16 *
V   17 *
M  END
>  <m_name>  (101)
N6-trifluoroacetyl-L-lysine

>  <symbol>  (101)
Lys(Tfa)

>  <m_abbr>  (101)
Lys(Tfa)

>  <m_type>  (101)
aa

>  <m_subtype>  (101)
non-natural

>  <m_RgroupIdx>  (101)
15,16,None,None

>  <m_Rgroups>  (101)
H,OH,None,None

>  <m_attachmentPointIdx>  (101)
0,13,None,None

>  <natAnalog>  (101)
K

$$$$

     RDKit          2D

 10  9  0  0  0  0  0  0  0  0999 V2000
    6.4952    0.7500    0.0000 C   0  0  0  0  0  0  0  0  0  0  0  0
    5.1962   -0.0000    0.0000 C   0  0  0  0  0  0  0  0  0  0  0  0
    5.1962   -1.5000    0.0000 C   0  0  0  0  0  0  0  0  0  0  0  0
    3.8971    0.7500    0.0000 C   0  0  0  0  0  0  0  0  0  0  0  0
    2.5981   -0.0000    0.0000 C   0  0  0  0  0  0  0  0  0  0  0  0
    1.2990    0.7500    0.0000 N   0  0  0  0  0  0  0  0  0  0  0  0
    2.5981   -1.5000    0.0000 C   0  0  0  0  0  0  0  0  0  0  0  0
    1.2990   -2.2500    0.0000 O   0  0  0  0  0  0  0  0  0  0  0  0
    0.0000    0.0000    0.0000 R#  0  0  0  0  0  0  0  0  0  0  0  0
    3.8971   -2.2500    0.0000 R#  0  0  0  0  0  0  0  0  0  0  0  0
  1  2  1  0
  2  3  1  0
  2  4  1  0
  5  4  1  1
  5  6  1  0
  6  9  1  0
  5  7  1  0
  7 10  1  0
  7  8  2  0
M  RGP  2   9   1  10   2
V    9 *
V   10 *
M  END
>  <m_name>  (102)
Leucine

>  <symbol>  (102)
L

>  <m_abbr>  (102)
L

>  <m_type>  (102)
aa

>  <m_subtype>  (102)
non-natural

>  <m_RgroupIdx>  (102)
8,9,None,None

>  <m_Rgroups>  (102)
H,OH,None,None

>  <m_attachmentPointIdx>  (102)
5,6,None,None

>  <natAnalog>  (102)
L

$$$$

     RDKit          2D

 10  9  0  0  0  0  0  0  0  0999 V2000
    6.4952    0.7500    0.0000 C   0  0  0  0  0  0  0  0  0  0  0  0
    5.1962   -0.0000    0.0000 C   0  0  0  0  0  0  0  0  0  0  0  0
    5.1962   -1.5000    0.0000 C   0  0  0  0  0  0  0  0  0  0  0  0
    3.8971    0.7500    0.0000 C   0  0  0  0  0  0  0  0  0  0  0  0
    2.5981   -0.0000    0.0000 C   0  0  0  0  0  0  0  0  0  0  0  0
    1.2990    0.7500    0.0000 N   0  0  0  0  0  0  0  0  0  0  0  0
    2.5981   -1.5000    0.0000 C   0  0  0  0  0  0  0  0  0  0  0  0
    1.2990   -2.2500    0.0000 O   0  0  0  0  0  0  0  0  0  0  0  0
    0.0000    0.0000    0.0000 R#  0  0  0  0  0  0  0  0  0  0  0  0
    3.8971   -2.2500    0.0000 R#  0  0  0  0  0  0  0  0  0  0  0  0
  1  2  1  0
  2  3  1  0
  2  4  1  0
  5  4  1  6
  5  6  1  0
  6  9  1  0
  5  7  1  0
  7 10  1  0
  7  8  2  0
M  RGP  2   9   1  10   2
V    9 *
V   10 *
M  END
>  <m_name>  (103)
D-leucine

>  <symbol>  (103)
dL

>  <m_abbr>  (103)
dL

>  <m_type>  (103)
aa

>  <m_subtype>  (103)
non-natural

>  <m_RgroupIdx>  (103)
8,9,None,None

>  <m_Rgroups>  (103)
H,OH,None,None

>  <m_attachmentPointIdx>  (103)
5,6,None,None

>  <natAnalog>  (103)
L

$$$$

     RDKit          2D

 11 10  0  0  0  0  0  0  0  0999 V2000
    3.8971    5.2500    0.0000 C   0  0  0  0  0  0  0  0  0  0  0  0
    2.5981    4.5000    0.0000 C   0  0  0  0  0  0  0  0  0  0  0  0
    1.2990    5.2500    0.0000 C   0  0  0  0  0  0  0  0  0  0  0  0
    2.5981    3.0000    0.0000 C   0  0  0  0  0  0  0  0  0  0  0  0
    1.2990    2.2500    0.0000 C   0  0  0  0  0  0  0  0  0  0  0  0
    1.2990    0.7500    0.0000 N   0  0  0  0  0  0  0  0  0  0  0  0
    2.5981   -0.0000    0.0000 C   0  0  0  0  0  0  0  0  0  0  0  0
    0.0000    3.0000    0.0000 C   0  0  0  0  0  0  0  0  0  0  0  0
   -1.2990    2.2500    0.0000 O   0  0  0  0  0  0  0  0  0  0  0  0
    0.0000    0.0000    0.0000 R#  0  0  0  0  0  0  0  0  0  0  0  0
    0.0000    4.5000    0.0000 R#  0  0  0  0  0  0  0  0  0  0  0  0
  1  2  1  0
  2  3  1  0
  2  4  1  0
  5  4  1  6
  5  6  1  0
  6  7  1  0
  6 10  1  0
  5  8  1  0
  8 11  1  0
  8  9  2  0
M  RGP  2  10   1  11   2
V   10 *
V   11 *
M  END
>  <m_name>  (104)
N-methyl-L-leucine

>  <symbol>  (104)
meL

>  <m_abbr>  (104)
meL

>  <m_type>  (104)
aa

>  <m_subtype>  (104)
non-natural

>  <m_RgroupIdx>  (104)
9,10,None,None

>  <m_Rgroups>  (104)
H,OH,None,None

>  <m_attachmentPointIdx>  (104)
5,7,None,None

>  <natAnalog>  (104)
L

$$$$

     RDKit          2D

 11 10  0  0  0  0  0  0  0  0999 V2000
    3.8971    5.2500    0.0000 C   0  0  0  0  0  0  0  0  0  0  0  0
    2.5981    4.5000    0.0000 C   0  0  0  0  0  0  0  0  0  0  0  0
    1.2990    5.2500    0.0000 C   0  0  0  0  0  0  0  0  0  0  0  0
    2.5981    3.0000    0.0000 C   0  0  0  0  0  0  0  0  0  0  0  0
    1.2990    2.2500    0.0000 C   0  0  0  0  0  0  0  0  0  0  0  0
    1.2990    0.7500    0.0000 N   0  0  0  0  0  0  0  0  0  0  0  0
    2.5981   -0.0000    0.0000 C   0  0  0  0  0  0  0  0  0  0  0  0
    0.0000    3.0000    0.0000 C   0  0  0  0  0  0  0  0  0  0  0  0
   -1.2990    2.2500    0.0000 O   0  0  0  0  0  0  0  0  0  0  0  0
    0.0000    0.0000    0.0000 R#  0  0  0  0  0  0  0  0  0  0  0  0
    0.0000    4.5000    0.0000 R#  0  0  0  0  0  0  0  0  0  0  0  0
  1  2  1  0
  2  3  1  0
  2  4  1  0
  5  4  1  1
  5  6  1  0
  6  7  1  0
  6 10  1  0
  5  8  1  0
  8 11  1  0
  8  9  2  0
M  RGP  2  10   1  11   2
V   10 *
V   11 *
M  END
>  <m_name>  (105)
N-methyl-D-leucine

>  <symbol>  (105)
Me_dL

>  <m_abbr>  (105)
Me_dL

>  <m_type>  (105)
aa

>  <m_subtype>  (105)
non-natural

>  <m_RgroupIdx>  (105)
9,10,None,None

>  <m_Rgroups>  (105)
H,OH,None,None

>  <m_attachmentPointIdx>  (105)
5,7,None,None

>  <natAnalog>  (105)
L

$$$$

     RDKit          2D

 11 10  0  0  0  0  0  0  0  0999 V2000
   -0.4019   -2.5981    0.0000 C   0  0  0  0  0  0  0  0  0  0  0  0
    0.3481   -1.2990    0.0000 C   0  0  0  0  0  0  0  0  0  0  0  0
   -0.4019    0.0000    0.0000 C   0  0  0  0  0  0  0  0  0  0  0  0
    1.8481   -1.2990    0.0000 C   0  0  0  0  0  0  0  0  0  0  0  0
    2.5981   -0.0000    0.0000 C   0  0  0  0  0  0  0  0  0  0  0  0
    3.3481    1.2990    0.0000 C   0  0  0  0  0  0  0  0  0  0  0  0
    1.2990    0.7500    0.0000 N   0  0  0  0  0  0  0  0  0  0  0  0
    3.8971   -0.7500    0.0000 C   0  0  0  0  0  0  0  0  0  0  0  0
    5.1962   -0.0000    0.0000 O   0  0  0  0  0  0  0  0  0  0  0  0
    1.2990    2.2500    0.0000 R#  0  0  0  0  0  0  0  0  0  0  0  0
    3.8971   -2.2500    0.0000 R#  0  0  0  0  0  0  0  0  0  0  0  0
  1  2  1  0
  2  3  1  0
  2  4  1  0
  4  5  1  0
  5  6  1  1
  5  7  1  0
  7 10  1  0
  5  8  1  0
  8 11  1  0
  8  9  2  0
M  RGP  2  10   1  11   2
V   10 *
V   11 *
M  END
>  <m_name>  (106)
2-methyl-L-leucine

>  <symbol>  (106)
aMeLeu

>  <m_abbr>  (106)
aMeLeu

>  <m_type>  (106)
aa

>  <m_subtype>  (106)
non-natural

>  <m_RgroupIdx>  (106)
9,10,None,None

>  <m_Rgroups>  (106)
H,OH,None,None

>  <m_attachmentPointIdx>  (106)
6,7,None,None

>  <natAnalog>  (106)
L

$$$$

     RDKit          2D

 12 11  0  0  0  0  0  0  0  0999 V2000
    6.4952    0.7500    0.0000 C   0  0  0  0  0  0  0  0  0  0  0  0
    5.1962   -0.0000    0.0000 C   0  0  0  0  0  0  0  0  0  0  0  0
    5.1962   -1.5000    0.0000 C   0  0  0  0  0  0  0  0  0  0  0  0
    3.8971    0.7500    0.0000 C   0  0  0  0  0  0  0  0  0  0  0  0
    3.8971    2.2500    0.0000 O   0  0  0  0  0  0  0  0  0  0  0  0
    2.5981   -0.0000    0.0000 C   0  0  0  0  0  0  0  0  0  0  0  0
    1.2990    0.7500    0.0000 N   0  0  0  0  0  0  0  0  0  0  0  0
    2.5981   -1.5000    0.0000 C   0  0  0  0  0  0  0  0  0  0  0  0
    1.2990   -2.2500    0.0000 O   0  0  0  0  0  0  0  0  0  0  0  0
    0.0000    0.0000    0.0000 R#  0  0  0  0  0  0  0  0  0  0  0  0
    3.8971   -2.2500    0.0000 R#  0  0  0  0  0  0  0  0  0  0  0  0
    5.1962    3.0000    0.0000 R#  0  0  0  0  0  0  0  0  0  0  0  0
  1  2  1  0
  2  3  1  0
  2  4  1  0
  4  5  1  6
  5 12  1  0
  4  6  1  0
  6  7  1  6
  7 10  1  0
  6  8  1  0
  8 11  1  0
  8  9  2  0
M  RGP  3  10   1  11   2  12   3
V   10 *
V   11 *
V   12 *
M  END
>  <m_name>  (107)
(3R)-3-hydroxy-D-leucine

>  <symbol>  (107)
dLeu(3R-OH)

>  <m_abbr>  (107)
dLeu(3R-OH)

>  <m_type>  (107)
aa

>  <m_subtype>  (107)
non-natural

>  <m_RgroupIdx>  (107)
9,10,11,None

>  <m_Rgroups>  (107)
H,OH,H,None

>  <m_attachmentPointIdx>  (107)
6,7,4,None

>  <natAnalog>  (107)
L

$$$$

     RDKit          2D

 10  9  0  0  0  0  0  0  0  0999 V2000
    6.4952    0.7500    0.0000 C   0  0  0  0  0  0  0  0  0  0  0  0
    5.1962   -0.0000    0.0000 C   0  0  0  0  0  0  0  0  0  0  0  0
    5.1962   -1.5000    0.0000 C   0  0  0  0  0  0  0  0  0  0  0  0
    3.8971    0.7500    0.0000 C   0  0  0  0  0  0  0  0  0  0  0  0
    2.5981   -0.0000    0.0000 C   0  0  0  0  0  0  0  0  0  0  0  0
    1.2990    0.7500    0.0000 O   0  0  0  0  0  0  0  0  0  0  0  0
    2.5981   -1.5000    0.0000 C   0  0  0  0  0  0  0  0  0  0  0  0
    1.2990   -2.2500    0.0000 O   0  0  0  0  0  0  0  0  0  0  0  0
    0.0000    0.0000    0.0000 R#  0  0  0  0  0  0  0  0  0  0  0  0
    3.8971   -2.2500    0.0000 R#  0  0  0  0  0  0  0  0  0  0  0  0
  1  2  1  0
  2  3  1  0
  2  4  1  0
  5  4  1  1
  5  6  1  0
  6  9  1  0
  5  7  1  0
  7 10  1  0
  7  8  2  0
M  RGP  2   9   1  10   2
V    9 *
V   10 *
M  END
>  <m_name>  (108)
Leucic acid

>  <symbol>  (108)
(N->O)Leu

>  <m_abbr>  (108)
(N->O)Leu

>  <m_type>  (108)
aa

>  <m_subtype>  (108)
non-natural

>  <m_RgroupIdx>  (108)
8,9,None,None

>  <m_Rgroups>  (108)
H,OH,None,None

>  <m_attachmentPointIdx>  (108)
5,6,None,None

>  <natAnalog>  (108)
L

$$$$

     RDKit          2D

 10  9  0  0  0  0  0  0  0  0999 V2000
    6.4952    0.7500    0.0000 C   0  0  0  0  0  0  0  0  0  0  0  0
    5.1962   -0.0000    0.0000 C   0  0  0  0  0  0  0  0  0  0  0  0
    5.1962   -1.5000    0.0000 C   0  0  0  0  0  0  0  0  0  0  0  0
    3.8971    0.7500    0.0000 C   0  0  0  0  0  0  0  0  0  0  0  0
    2.5981   -0.0000    0.0000 C   0  0  0  0  0  0  0  0  0  0  0  0
    1.2990    0.7500    0.0000 O   0  0  0  0  0  0  0  0  0  0  0  0
    2.5981   -1.5000    0.0000 C   0  0  0  0  0  0  0  0  0  0  0  0
    1.2990   -2.2500    0.0000 O   0  0  0  0  0  0  0  0  0  0  0  0
    0.0000    0.0000    0.0000 R#  0  0  0  0  0  0  0  0  0  0  0  0
    3.8971   -2.2500    0.0000 R#  0  0  0  0  0  0  0  0  0  0  0  0
  1  2  1  0
  2  3  1  0
  2  4  1  0
  5  4  1  6
  5  6  1  0
  6  9  1  0
  5  7  1  0
  7 10  1  0
  7  8  2  0
M  RGP  2   9   1  10   2
V    9 *
V   10 *
M  END
>  <m_name>  (109)
D-leucic acid

>  <symbol>  (109)
d(N->O)Leu

>  <m_abbr>  (109)
d(N->O)Leu

>  <m_type>  (109)
aa

>  <m_subtype>  (109)
non-natural

>  <m_RgroupIdx>  (109)
8,9,None,None

>  <m_Rgroups>  (109)
H,OH,None,None

>  <m_attachmentPointIdx>  (109)
5,6,None,None

>  <natAnalog>  (109)
L

$$$$

     RDKit          2D

 10  9  0  0  0  0  0  0  0  0999 V2000
    7.7942   -0.0000    0.0000 C   0  0  0  0  0  0  0  0  0  0  0  0
    6.4952    0.7500    0.0000 S   0  0  0  0  0  0  0  0  0  0  0  0
    5.1962   -0.0000    0.0000 C   0  0  0  0  0  0  0  0  0  0  0  0
    3.8971    0.7500    0.0000 C   0  0  0  0  0  0  0  0  0  0  0  0
    2.5981   -0.0000    0.0000 C   0  0  0  0  0  0  0  0  0  0  0  0
    1.2990    0.7500    0.0000 N   0  0  0  0  0  0  0  0  0  0  0  0
    2.5981   -1.5000    0.0000 C   0  0  0  0  0  0  0  0  0  0  0  0
    1.2990   -2.2500    0.0000 O   0  0  0  0  0  0  0  0  0  0  0  0
    0.0000    0.0000    0.0000 R#  0  0  0  0  0  0  0  0  0  0  0  0
    3.8971   -2.2500    0.0000 R#  0  0  0  0  0  0  0  0  0  0  0  0
  1  2  1  0
  2  3  1  0
  3  4  1  0
  5  4  1  1
  5  6  1  0
  6  9  1  0
  5  7  1  0
  7 10  1  0
  7  8  2  0
M  RGP  2   9   1  10   2
V    9 *
V   10 *
M  END
>  <m_name>  (110)
Methionine

>  <symbol>  (110)
M

>  <m_abbr>  (110)
M

>  <m_type>  (110)
aa

>  <m_subtype>  (110)
non-natural

>  <m_RgroupIdx>  (110)
8,9,None,None

>  <m_Rgroups>  (110)
H,OH,None,None

>  <m_attachmentPointIdx>  (110)
5,6,None,None

>  <natAnalog>  (110)
M

$$$$

     RDKit          2D

 11 10  0  0  0  0  0  0  0  0999 V2000
    3.8971    6.7500    0.0000 C   0  0  0  0  0  0  0  0  0  0  0  0
    3.8971    5.2500    0.0000 S   0  0  0  0  0  0  0  0  0  0  0  0
    2.5981    4.5000    0.0000 C   0  0  0  0  0  0  0  0  0  0  0  0
    2.5981    3.0000    0.0000 C   0  0  0  0  0  0  0  0  0  0  0  0
    1.2990    2.2500    0.0000 C   0  0  0  0  0  0  0  0  0  0  0  0
    0.0000    3.0000    0.0000 C   0  0  0  0  0  0  0  0  0  0  0  0
   -1.2990    2.2500    0.0000 O   0  0  0  0  0  0  0  0  0  0  0  0
    1.2990    0.7500    0.0000 N   0  0  0  0  0  0  0  0  0  0  0  0
    2.5981   -0.0000    0.0000 C   0  0  0  0  0  0  0  0  0  0  0  0
    0.0000    0.0000    0.0000 R#  0  0  0  0  0  0  0  0  0  0  0  0
    0.0000    4.5000    0.0000 R#  0  0  0  0  0  0  0  0  0  0  0  0
  1  2  1  0
  2  3  1  0
  3  4  1  0
  5  4  1  6
  5  6  1  0
  6 11  1  0
  6  7  2  0
  5  8  1  0
  8  9  1  0
  8 10  1  0
M  RGP  2  10   1  11   2
V   10 *
V   11 *
M  END
>  <m_name>  (111)
N-methyl-L-methionine

>  <symbol>  (111)
meM

>  <m_abbr>  (111)
meM

>  <m_type>  (111)
aa

>  <m_subtype>  (111)
non-natural

>  <m_RgroupIdx>  (111)
9,10,None,None

>  <m_Rgroups>  (111)
H,OH,None,None

>  <m_attachmentPointIdx>  (111)
7,5,None,None

>  <natAnalog>  (111)
M

$$$$

     RDKit          2D

 12 11  0  0  0  0  0  0  0  0999 V2000
    7.7942    1.5000    0.0000 C   0  0  0  0  0  0  0  0  0  0  0  0
    6.4952    0.7500    0.0000 S   0  0  0  0  0  0  0  0  0  0  0  0
    5.7452    2.0490    0.0000 O   0  0  0  0  0  0  0  0  0  0  0  0
    7.2452   -0.5490    0.0000 O   0  0  0  0  0  0  0  0  0  0  0  0
    5.1962   -0.0000    0.0000 C   0  0  0  0  0  0  0  0  0  0  0  0
    3.8971    0.7500    0.0000 C   0  0  0  0  0  0  0  0  0  0  0  0
    2.5981   -0.0000    0.0000 C   0  0  0  0  0  0  0  0  0  0  0  0
    1.2990    0.7500    0.0000 N   0  0  0  0  0  0  0  0  0  0  0  0
    2.5981   -1.5000    0.0000 C   0  0  0  0  0  0  0  0  0  0  0  0
    1.2990   -2.2500    0.0000 O   0  0  0  0  0  0  0  0  0  0  0  0
    0.0000    0.0000    0.0000 R#  0  0  0  0  0  0  0  0  0  0  0  0
    3.8971   -2.2500    0.0000 R#  0  0  0  0  0  0  0  0  0  0  0  0
  1  2  1  0
  2  3  2  0
  2  4  2  0
  2  5  1  0
  5  6  1  0
  7  6  1  1
  7  8  1  0
  8 11  1  0
  7  9  1  0
  9 12  1  0
  9 10  2  0
M  RGP  2  11   1  12   2
V   11 *
V   12 *
M  END
>  <m_name>  (112)
Methionine sulfone

>  <symbol>  (112)
Met(O2)

>  <m_abbr>  (112)
Met(O2)

>  <m_type>  (112)
aa

>  <m_subtype>  (112)
non-natural

>  <m_RgroupIdx>  (112)
10,11,None,None

>  <m_Rgroups>  (112)
H,OH,None,None

>  <m_attachmentPointIdx>  (112)
7,8,None,None

>  <natAnalog>  (112)
M

$$$$

     RDKit          2D

 10  9  0  0  0  0  0  0  0  0999 V2000
    6.4952    0.7500    0.0000 N   0  0  0  0  0  0  0  0  0  0  0  0
    5.1962   -0.0000    0.0000 C   0  0  0  0  0  0  0  0  0  0  0  0
    5.1962   -1.5000    0.0000 O   0  0  0  0  0  0  0  0  0  0  0  0
    3.8971    0.7500    0.0000 C   0  0  0  0  0  0  0  0  0  0  0  0
    2.5981   -0.0000    0.0000 C   0  0  0  0  0  0  0  0  0  0  0  0
    1.2990    0.7500    0.0000 N   0  0  0  0  0  0  0  0  0  0  0  0
    2.5981   -1.5000    0.0000 C   0  0  0  0  0  0  0  0  0  0  0  0
    1.2990   -2.2500    0.0000 O   0  0  0  0  0  0  0  0  0  0  0  0
    0.0000    0.0000    0.0000 R#  0  0  0  0  0  0  0  0  0  0  0  0
    3.8971   -2.2500    0.0000 R#  0  0  0  0  0  0  0  0  0  0  0  0
  1  2  1  0
  2  3  2  0
  2  4  1  0
  5  4  1  1
  5  6  1  0
  6  9  1  0
  5  7  1  0
  7 10  1  0
  7  8  2  0
M  RGP  2   9   1  10   2
V    9 *
V   10 *
M  END
>  <m_name>  (113)
Asparagine

>  <symbol>  (113)
N

>  <m_abbr>  (113)
N

>  <m_type>  (113)
aa

>  <m_subtype>  (113)
non-natural

>  <m_RgroupIdx>  (113)
8,9,None,None

>  <m_Rgroups>  (113)
H,OH,None,None

>  <m_attachmentPointIdx>  (113)
5,6,None,None

>  <natAnalog>  (113)
N

$$$$

     RDKit          2D

 10  9  0  0  0  0  0  0  0  0999 V2000
    6.4952    0.7500    0.0000 N   0  0  0  0  0  0  0  0  0  0  0  0
    5.1962   -0.0000    0.0000 C   0  0  0  0  0  0  0  0  0  0  0  0
    5.1962   -1.5000    0.0000 O   0  0  0  0  0  0  0  0  0  0  0  0
    3.8971    0.7500    0.0000 C   0  0  0  0  0  0  0  0  0  0  0  0
    2.5981   -0.0000    0.0000 C   0  0  0  0  0  0  0  0  0  0  0  0
    1.2990    0.7500    0.0000 N   0  0  0  0  0  0  0  0  0  0  0  0
    2.5981   -1.5000    0.0000 C   0  0  0  0  0  0  0  0  0  0  0  0
    1.2990   -2.2500    0.0000 O   0  0  0  0  0  0  0  0  0  0  0  0
    0.0000    0.0000    0.0000 R#  0  0  0  0  0  0  0  0  0  0  0  0
    3.8971   -2.2500    0.0000 R#  0  0  0  0  0  0  0  0  0  0  0  0
  1  2  1  0
  2  3  2  0
  2  4  1  0
  5  4  1  6
  5  6  1  0
  6  9  1  0
  5  7  1  0
  7 10  1  0
  7  8  2  0
M  RGP  2   9   1  10   2
V    9 *
V   10 *
M  END
>  <m_name>  (114)
D-asparagine

>  <symbol>  (114)
dN

>  <m_abbr>  (114)
dN

>  <m_type>  (114)
aa

>  <m_subtype>  (114)
non-natural

>  <m_RgroupIdx>  (114)
8,9,None,None

>  <m_Rgroups>  (114)
H,OH,None,None

>  <m_attachmentPointIdx>  (114)
5,6,None,None

>  <natAnalog>  (114)
N

$$$$

     RDKit          2D

 11 10  0  0  0  0  0  0  0  0999 V2000
    2.5981   -0.0000    0.0000 C   0  0  0  0  0  0  0  0  0  0  0  0
    1.2990    0.7500    0.0000 N   0  0  0  0  0  0  0  0  0  0  0  0
    1.2990    2.2500    0.0000 C   0  0  0  0  0  0  0  0  0  0  0  0
    2.5981    3.0000    0.0000 C   0  0  0  0  0  0  0  0  0  0  0  0
    2.5981    4.5000    0.0000 C   0  0  0  0  0  0  0  0  0  0  0  0
    3.8971    5.2500    0.0000 N   0  0  0  0  0  0  0  0  0  0  0  0
    1.2990    5.2500    0.0000 O   0  0  0  0  0  0  0  0  0  0  0  0
    0.0000    3.0000    0.0000 C   0  0  0  0  0  0  0  0  0  0  0  0
   -1.2990    2.2500    0.0000 O   0  0  0  0  0  0  0  0  0  0  0  0
    0.0000    0.0000    0.0000 R#  0  0  0  0  0  0  0  0  0  0  0  0
    0.0000    4.5000    0.0000 R#  0  0  0  0  0  0  0  0  0  0  0  0
  1  2  1  0
  2 10  1  0
  2  3  1  0
  3  4  1  6
  4  5  1  0
  5  6  1  0
  5  7  2  0
  3  8  1  0
  8 11  1  0
  8  9  2  0
M  RGP  2  10   1  11   2
V   10 *
V   11 *
M  END
>  <m_name>  (115)
N-methyl-L-asparagine

>  <symbol>  (115)
meN

>  <m_abbr>  (115)
meN

>  <m_type>  (115)
aa

>  <m_subtype>  (115)
non-natural

>  <m_RgroupIdx>  (115)
9,10,None,None

>  <m_Rgroups>  (115)
H,OH,None,None

>  <m_attachmentPointIdx>  (115)
1,7,None,None

>  <natAnalog>  (115)
N

$$$$

     RDKit          2D

 12 11  0  0  0  0  0  0  0  0999 V2000
    7.7942   -0.0000    0.0000 C   0  0  0  0  0  0  0  0  0  0  0  0
    6.4952    0.7500    0.0000 N   0  0  0  0  0  0  0  0  0  0  0  0
    6.4952    2.2500    0.0000 C   0  0  0  0  0  0  0  0  0  0  0  0
    5.1962   -0.0000    0.0000 C   0  0  0  0  0  0  0  0  0  0  0  0
    5.1962   -1.5000    0.0000 O   0  0  0  0  0  0  0  0  0  0  0  0
    3.8971    0.7500    0.0000 C   0  0  0  0  0  0  0  0  0  0  0  0
    2.5981   -0.0000    0.0000 C   0  0  0  0  0  0  0  0  0  0  0  0
    1.2990    0.7500    0.0000 N   0  0  0  0  0  0  0  0  0  0  0  0
    2.5981   -1.5000    0.0000 C   0  0  0  0  0  0  0  0  0  0  0  0
    1.2990   -2.2500    0.0000 O   0  0  0  0  0  0  0  0  0  0  0  0
    0.0000    0.0000    0.0000 R#  0  0  0  0  0  0  0  0  0  0  0  0
    3.8971   -2.2500    0.0000 R#  0  0  0  0  0  0  0  0  0  0  0  0
  1  2  1  0
  2  3  1  0
  2  4  1  0
  4  5  2  0
  4  6  1  0
  7  6  1  6
  7  8  1  0
  8 11  1  0
  7  9  1  0
  9 12  1  0
  9 10  2  0
M  RGP  2  11   1  12   2
V   11 *
V   12 *
M  END
>  <m_name>  (116)
N4,N4-dimethyl-D-asparagine

>  <symbol>  (116)
dAsn(Me2)

>  <m_abbr>  (116)
dAsn(Me2)

>  <m_type>  (116)
aa

>  <m_subtype>  (116)
non-natural

>  <m_RgroupIdx>  (116)
10,11,None,None

>  <m_Rgroups>  (116)
H,OH,None,None

>  <m_attachmentPointIdx>  (116)
7,8,None,None

>  <natAnalog>  (116)
N

$$$$

     RDKit          2D

 17 18  0  0  0  0  0  0  0  0999 V2000
   -3.7500   -3.8971    0.0000 N   0  0  0  0  0  0  0  0  0  0  0  0
   -3.0000   -5.1962    0.0000 C   0  0  0  0  0  0  0  0  0  0  0  0
   -1.5000   -5.1962    0.0000 C   0  0  0  0  0  0  0  0  0  0  0  0
   -0.7500   -3.8971    0.0000 C   0  0  0  0  0  0  0  0  0  0  0  0
    0.7500   -3.8971    0.0000 C   0  0  0  0  0  0  0  0  0  0  0  0
    1.5000   -2.5981    0.0000 C   0  0  0  0  0  0  0  0  0  0  0  0
    0.7500   -1.2990    0.0000 C   0  0  0  0  0  0  0  0  0  0  0  0
    1.5000    0.0000    0.0000 C   0  0  0  0  0  0  0  0  0  0  0  0
    0.7500    1.2990    0.0000 C   0  0  0  0  0  0  0  0  0  0  0  0
   -0.7500    1.2990    0.0000 C   0  0  0  0  0  0  0  0  0  0  0  0
   -1.5000    0.0000    0.0000 C   0  0  0  0  0  0  0  0  0  0  0  0
   -0.7500   -1.2990    0.0000 C   0  0  0  0  0  0  0  0  0  0  0  0
   -1.5000   -2.5981    0.0000 C   0  0  0  0  0  0  0  0  0  0  0  0
   -3.7500   -6.4952    0.0000 C   0  0  0  0  0  0  0  0  0  0  0  0
   -3.0000   -7.7942    0.0000 O   0  0  0  0  0  0  0  0  0  0  0  0
   -5.2500   -3.8971    0.0000 R#  0  0  0  0  0  0  0  0  0  0  0  0
   -5.2500   -6.4952    0.0000 R#  0  0  0  0  0  0  0  0  0  0  0  0
 16  1  1  0
  1  2  1  0
  2  3  1  1
  3  4  1  0
  4  5  2  0
  5  6  1  0
  6  7  2  0
  7  8  1  0
  8  9  2  0
  9 10  1  0
 10 11  2  0
 11 12  1  0
 12 13  2  0
  2 14  1  0
 14 17  1  0
 14 15  2  0
 13  4  1  0
 12  7  1  0
M  RGP  2  16   1  17   2
V   16 *
V   17 *
M  END
>  <m_name>  (117)
3-(2-naphthyl)-L-alanine

>  <symbol>  (117)
Nal

>  <m_abbr>  (117)
Nal

>  <m_type>  (117)
aa

>  <m_subtype>  (117)
non-natural

>  <m_RgroupIdx>  (117)
15,16,None,None

>  <m_Rgroups>  (117)
H,OH,None,None

>  <m_attachmentPointIdx>  (117)
0,13,None,None

>  <natAnalog>  (117)
A

$$$$

     RDKit          2D

 17 18  0  0  0  0  0  0  0  0999 V2000
   -3.0000   -5.1962    0.0000 N   0  0  0  0  0  0  0  0  0  0  0  0
   -3.7500   -3.8971    0.0000 C   0  0  0  0  0  0  0  0  0  0  0  0
   -3.0000   -2.5981    0.0000 C   0  0  0  0  0  0  0  0  0  0  0  0
   -1.5000   -2.5981    0.0000 C   0  0  0  0  0  0  0  0  0  0  0  0
   -0.7500   -3.8971    0.0000 C   0  0  0  0  0  0  0  0  0  0  0  0
    0.7500   -3.8971    0.0000 C   0  0  0  0  0  0  0  0  0  0  0  0
    1.5000   -2.5981    0.0000 C   0  0  0  0  0  0  0  0  0  0  0  0
    0.7500   -1.2990    0.0000 C   0  0  0  0  0  0  0  0  0  0  0  0
    1.5000    0.0000    0.0000 C   0  0  0  0  0  0  0  0  0  0  0  0
    0.7500    1.2990    0.0000 C   0  0  0  0  0  0  0  0  0  0  0  0
   -0.7500    1.2990    0.0000 C   0  0  0  0  0  0  0  0  0  0  0  0
   -1.5000    0.0000    0.0000 C   0  0  0  0  0  0  0  0  0  0  0  0
   -0.7500   -1.2990    0.0000 C   0  0  0  0  0  0  0  0  0  0  0  0
   -5.2500   -3.8971    0.0000 C   0  0  0  0  0  0  0  0  0  0  0  0
   -6.0000   -2.5981    0.0000 O   0  0  0  0  0  0  0  0  0  0  0  0
   -3.7500   -6.4952    0.0000 R#  0  0  0  0  0  0  0  0  0  0  0  0
   -6.0000   -5.1962    0.0000 R#  0  0  0  0  0  0  0  0  0  0  0  0
 16  1  1  0
  1  2  1  0
  2  3  1  6
  3  4  1  0
  4  5  2  0
  5  6  1  0
  6  7  2  0
  7  8  1  0
  8  9  2  0
  9 10  1  0
 10 11  2  0
 11 12  1  0
 12 13  2  0
  2 14  1  0
 14 17  1  0
 14 15  2  0
 13  4  1  0
 13  8  1  0
M  RGP  2  16   1  17   2
V   16 *
V   17 *
M  END
>  <m_name>  (118)
3-(1-naphthyl)-L-alanine

>  <symbol>  (118)
1-Nal

>  <m_abbr>  (118)
1-Nal

>  <m_type>  (118)
aa

>  <m_subtype>  (118)
non-natural

>  <m_RgroupIdx>  (118)
15,16,None,None

>  <m_Rgroups>  (118)
H,OH,None,None

>  <m_attachmentPointIdx>  (118)
0,13,None,None

>  <natAnalog>  (118)
A

$$$$

     RDKit          2D

 17 18  0  0  0  0  0  0  0  0999 V2000
   -3.0000   -5.1962    0.0000 N   0  0  0  0  0  0  0  0  0  0  0  0
   -3.7500   -3.8971    0.0000 C   0  0  0  0  0  0  0  0  0  0  0  0
   -3.0000   -2.5981    0.0000 C   0  0  0  0  0  0  0  0  0  0  0  0
   -1.5000   -2.5981    0.0000 C   0  0  0  0  0  0  0  0  0  0  0  0
   -0.7500   -3.8971    0.0000 C   0  0  0  0  0  0  0  0  0  0  0  0
    0.7500   -3.8971    0.0000 C   0  0  0  0  0  0  0  0  0  0  0  0
    1.5000   -2.5981    0.0000 C   0  0  0  0  0  0  0  0  0  0  0  0
    0.7500   -1.2990    0.0000 C   0  0  0  0  0  0  0  0  0  0  0  0
    1.5000    0.0000    0.0000 C   0  0  0  0  0  0  0  0  0  0  0  0
    0.7500    1.2990    0.0000 C   0  0  0  0  0  0  0  0  0  0  0  0
   -0.7500    1.2990    0.0000 C   0  0  0  0  0  0  0  0  0  0  0  0
   -1.5000    0.0000    0.0000 C   0  0  0  0  0  0  0  0  0  0  0  0
   -0.7500   -1.2990    0.0000 C   0  0  0  0  0  0  0  0  0  0  0  0
   -5.2500   -3.8971    0.0000 C   0  0  0  0  0  0  0  0  0  0  0  0
   -6.0000   -2.5981    0.0000 O   0  0  0  0  0  0  0  0  0  0  0  0
   -3.7500   -6.4952    0.0000 R#  0  0  0  0  0  0  0  0  0  0  0  0
   -6.0000   -5.1962    0.0000 R#  0  0  0  0  0  0  0  0  0  0  0  0
 16  1  1  0
  1  2  1  0
  2  3  1  1
  3  4  1  0
  4  5  2  0
  5  6  1  0
  6  7  2  0
  7  8  1  0
  8  9  2  0
  9 10  1  0
 10 11  2  0
 11 12  1  0
 12 13  2  0
  2 14  1  0
 14 17  1  0
 14 15  2  0
 13  4  1  0
 13  8  1  0
M  RGP  2  16   1  17   2
V   16 *
V   17 *
M  END
>  <m_name>  (119)
3-(1-naphthyl)-D-alanine

>  <symbol>  (119)
d1-Nal

>  <m_abbr>  (119)
d1-Nal

>  <m_type>  (119)
aa

>  <m_subtype>  (119)
non-natural

>  <m_RgroupIdx>  (119)
15,16,None,None

>  <m_Rgroups>  (119)
H,OH,None,None

>  <m_attachmentPointIdx>  (119)
0,13,None,None

>  <natAnalog>  (119)
A

$$$$

     RDKit          2D

 10  9  0  0  0  0  0  0  0  0999 V2000
    7.7942   -0.0000    0.0000 C   0  0  0  0  0  0  0  0  0  0  0  0
    6.4952    0.7500    0.0000 C   0  0  0  0  0  0  0  0  0  0  0  0
    5.1962   -0.0000    0.0000 C   0  0  0  0  0  0  0  0  0  0  0  0
    3.8971    0.7500    0.0000 C   0  0  0  0  0  0  0  0  0  0  0  0
    2.5981   -0.0000    0.0000 C   0  0  0  0  0  0  0  0  0  0  0  0
    1.2990    0.7500    0.0000 N   0  0  0  0  0  0  0  0  0  0  0  0
    2.5981   -1.5000    0.0000 C   0  0  0  0  0  0  0  0  0  0  0  0
    1.2990   -2.2500    0.0000 O   0  0  0  0  0  0  0  0  0  0  0  0
    0.0000    0.0000    0.0000 R#  0  0  0  0  0  0  0  0  0  0  0  0
    3.8971   -2.2500    0.0000 R#  0  0  0  0  0  0  0  0  0  0  0  0
  1  2  1  0
  2  3  1  0
  3  4  1  0
  5  4  1  1
  5  6  1  0
  6  9  1  0
  5  7  1  0
  7 10  1  0
  7  8  2  0
M  RGP  2   9   1  10   2
V    9 *
V   10 *
M  END
>  <m_name>  (120)
Norleucine

>  <symbol>  (120)
Nle

>  <m_abbr>  (120)
Nle

>  <m_type>  (120)
aa

>  <m_subtype>  (120)
non-natural

>  <m_RgroupIdx>  (120)
8,9,None,None

>  <m_Rgroups>  (120)
H,OH,None,None

>  <m_attachmentPointIdx>  (120)
5,6,None,None

>  <natAnalog>  (120)
L

$$$$

     RDKit          2D

 11 10  0  0  0  0  0  0  0  0999 V2000
    3.8971    6.7500    0.0000 C   0  0  0  0  0  0  0  0  0  0  0  0
    3.8971    5.2500    0.0000 C   0  0  0  0  0  0  0  0  0  0  0  0
    2.5981    4.5000    0.0000 C   0  0  0  0  0  0  0  0  0  0  0  0
    2.5981    3.0000    0.0000 C   0  0  0  0  0  0  0  0  0  0  0  0
    1.2990    2.2500    0.0000 C   0  0  0  0  0  0  0  0  0  0  0  0
    1.2990    0.7500    0.0000 N   0  0  0  0  0  0  0  0  0  0  0  0
    2.5981   -0.0000    0.0000 C   0  0  0  0  0  0  0  0  0  0  0  0
    0.0000    3.0000    0.0000 C   0  0  0  0  0  0  0  0  0  0  0  0
   -1.2990    2.2500    0.0000 O   0  0  0  0  0  0  0  0  0  0  0  0
    0.0000    0.0000    0.0000 R#  0  0  0  0  0  0  0  0  0  0  0  0
    0.0000    4.5000    0.0000 R#  0  0  0  0  0  0  0  0  0  0  0  0
  1  2  1  0
  2  3  1  0
  3  4  1  0
  5  4  1  6
  5  6  1  0
  6  7  1  0
  6 10  1  0
  5  8  1  0
  8 11  1  0
  8  9  2  0
M  RGP  2  10   1  11   2
V   10 *
V   11 *
M  END
>  <m_name>  (121)
N-methyl-L-norleucine

>  <symbol>  (121)
Me_Nle

>  <m_abbr>  (121)
Me_Nle

>  <m_type>  (121)
aa

>  <m_subtype>  (121)
non-natural

>  <m_RgroupIdx>  (121)
9,10,None,None

>  <m_Rgroups>  (121)
H,OH,None,None

>  <m_attachmentPointIdx>  (121)
5,7,None,None

>  <natAnalog>  (121)
L

$$$$

     RDKit          2D

 11 10  0  0  0  0  0  0  0  0999 V2000
    3.8971    6.7500    0.0000 C   0  0  0  0  0  0  0  0  0  0  0  0
    3.8971    5.2500    0.0000 C   0  0  0  0  0  0  0  0  0  0  0  0
    2.5981    4.5000    0.0000 C   0  0  0  0  0  0  0  0  0  0  0  0
    2.5981    3.0000    0.0000 C   0  0  0  0  0  0  0  0  0  0  0  0
    1.2990    2.2500    0.0000 C   0  0  0  0  0  0  0  0  0  0  0  0
    0.0000    3.0000    0.0000 C   0  0  0  0  0  0  0  0  0  0  0  0
   -1.2990    2.2500    0.0000 O   0  0  0  0  0  0  0  0  0  0  0  0
    1.2990    0.7500    0.0000 N   0  0  0  0  0  0  0  0  0  0  0  0
    2.5981   -0.0000    0.0000 C   0  0  0  0  0  0  0  0  0  0  0  0
    0.0000    0.0000    0.0000 R#  0  0  0  0  0  0  0  0  0  0  0  0
    0.0000    4.5000    0.0000 R#  0  0  0  0  0  0  0  0  0  0  0  0
  1  2  1  0
  2  3  1  0
  3  4  1  0
  5  4  1  1
  5  6  1  0
  6 11  1  0
  6  7  2  0
  5  8  1  0
  8  9  1  0
  8 10  1  0
M  RGP  2  10   1  11   2
V   10 *
V   11 *
M  END
>  <m_name>  (122)
N-methyl-D-norleucine

>  <symbol>  (122)
Me_dNle

>  <m_abbr>  (122)
Me_dNle

>  <m_type>  (122)
aa

>  <m_subtype>  (122)
non-natural

>  <m_RgroupIdx>  (122)
9,10,None,None

>  <m_Rgroups>  (122)
H,OH,None,None

>  <m_attachmentPointIdx>  (122)
7,5,None,None

>  <natAnalog>  (122)
L

$$$$

     RDKit          2D

 13 12  0  0  0  0  0  0  0  0999 V2000
    1.2990    0.7500    0.0000 N   0  0  0  0  0  0  0  0  0  0  0  0
    2.5981   -0.0000    0.0000 C   0  0  0  0  0  0  0  0  0  0  0  0
    3.8971    0.7500    0.0000 C   0  0  0  0  0  0  0  0  0  0  0  0
    5.1962   -0.0000    0.0000 C   0  0  0  0  0  0  0  0  0  0  0  0
    6.4952    0.7500    0.0000 C   0  0  0  0  0  0  0  0  0  0  0  0
    7.7942   -0.0000    0.0000 C   0  0  0  0  0  0  0  0  0  0  0  0
    9.0933    0.7500    0.0000 C   0  0  0  0  0  0  0  0  0  0  0  0
   10.3923   -0.0000    0.0000 F   0  0  0  0  0  0  0  0  0  0  0  0
    9.0933    2.2500    0.0000 F   0  0  0  0  0  0  0  0  0  0  0  0
    2.5981   -1.5000    0.0000 C   0  0  0  0  0  0  0  0  0  0  0  0
    1.2990   -2.2500    0.0000 O   0  0  0  0  0  0  0  0  0  0  0  0
    0.0000    0.0000    0.0000 R#  0  0  0  0  0  0  0  0  0  0  0  0
    3.8971   -2.2500    0.0000 R#  0  0  0  0  0  0  0  0  0  0  0  0
 12  1  1  0
  1  2  1  0
  2  3  1  1
  3  4  1  0
  4  5  1  0
  5  6  1  0
  6  7  1  0
  7  8  1  0
  7  9  1  0
  2 10  1  0
 10 13  1  0
 10 11  2  0
M  RGP  2  12   1  13   2
V   12 *
V   13 *
M  END
>  <m_name>  (123)
6-(difluoromethyl)-L-norleucine

>  <symbol>  (123)
Nle(CHF2)

>  <m_abbr>  (123)
Nle(CHF2)

>  <m_type>  (123)
aa

>  <m_subtype>  (123)
non-natural

>  <m_RgroupIdx>  (123)
11,12,None,None

>  <m_Rgroups>  (123)
H,OH,None,None

>  <m_attachmentPointIdx>  (123)
0,9,None,None

>  <natAnalog>  (123)
L

$$$$

     RDKit          2D

 11 10  0  0  0  0  0  0  0  0999 V2000
    1.2990    0.7500    0.0000 N   0  0  0  0  0  0  0  0  0  0  0  0
    2.5981   -0.0000    0.0000 C   0  0  0  0  0  0  0  0  0  0  0  0
    3.8971    0.7500    0.0000 C   0  0  0  0  0  0  0  0  0  0  0  0
    5.1962   -0.0000    0.0000 C   0  0  0  0  0  0  0  0  0  0  0  0
    6.4952    0.7500    0.0000 C   0  0  0  0  0  0  0  0  0  0  0  0
    7.7942   -0.0000    0.0000 C   0  0  0  0  0  0  0  0  0  0  0  0
    9.0933    0.7500    0.0000 O   0  0  0  0  0  0  0  0  0  0  0  0
    2.5981   -1.5000    0.0000 C   0  0  0  0  0  0  0  0  0  0  0  0
    1.2990   -2.2500    0.0000 O   0  0  0  0  0  0  0  0  0  0  0  0
    0.0000    0.0000    0.0000 R#  0  0  0  0  0  0  0  0  0  0  0  0
    3.8971   -2.2500    0.0000 R#  0  0  0  0  0  0  0  0  0  0  0  0
 10  1  1  0
  1  2  1  0
  2  3  1  1
  3  4  1  0
  4  5  1  0
  5  6  1  0
  6  7  1  0
  2  8  1  0
  8 11  1  0
  8  9  2  0
M  RGP  2  10   1  11   2
V   10 *
V   11 *
M  END
>  <m_name>  (124)
6-hydroxy-L-norleucine

>  <symbol>  (124)
Nle(OH)

>  <m_abbr>  (124)
Nle(OH)

>  <m_type>  (124)
aa

>  <m_subtype>  (124)
non-natural

>  <m_RgroupIdx>  (124)
9,10,None,None

>  <m_Rgroups>  (124)
H,OH,None,None

>  <m_attachmentPointIdx>  (124)
0,7,None,None

>  <natAnalog>  (124)
L

$$$$

     RDKit          2D

  9  8  0  0  0  0  0  0  0  0999 V2000
    6.4952    0.7500    0.0000 C   0  0  0  0  0  0  0  0  0  0  0  0
    5.1962   -0.0000    0.0000 C   0  0  0  0  0  0  0  0  0  0  0  0
    3.8971    0.7500    0.0000 C   0  0  0  0  0  0  0  0  0  0  0  0
    2.5981   -0.0000    0.0000 C   0  0  0  0  0  0  0  0  0  0  0  0
    1.2990    0.7500    0.0000 N   0  0  0  0  0  0  0  0  0  0  0  0
    2.5981   -1.5000    0.0000 C   0  0  0  0  0  0  0  0  0  0  0  0
    1.2990   -2.2500    0.0000 O   0  0  0  0  0  0  0  0  0  0  0  0
    0.0000    0.0000    0.0000 R#  0  0  0  0  0  0  0  0  0  0  0  0
    3.8971   -2.2500    0.0000 R#  0  0  0  0  0  0  0  0  0  0  0  0
  1  2  1  0
  2  3  1  0
  4  3  1  1
  4  5  1  0
  5  8  1  0
  4  6  1  0
  6  9  1  0
  6  7  2  0
M  RGP  2   8   1   9   2
V    8 *
V    9 *
M  END
>  <m_name>  (125)
Norvaline

>  <symbol>  (125)
Nva

>  <m_abbr>  (125)
Nva

>  <m_type>  (125)
aa

>  <m_subtype>  (125)
non-natural

>  <m_RgroupIdx>  (125)
7,8,None,None

>  <m_Rgroups>  (125)
H,OH,None,None

>  <m_attachmentPointIdx>  (125)
4,5,None,None

>  <natAnalog>  (125)
V

$$$$

     RDKit          2D

  9  8  0  0  0  0  0  0  0  0999 V2000
    6.4952    0.7500    0.0000 C   0  0  0  0  0  0  0  0  0  0  0  0
    5.1962   -0.0000    0.0000 C   0  0  0  0  0  0  0  0  0  0  0  0
    3.8971    0.7500    0.0000 C   0  0  0  0  0  0  0  0  0  0  0  0
    2.5981   -0.0000    0.0000 C   0  0  0  0  0  0  0  0  0  0  0  0
    1.2990    0.7500    0.0000 N   0  0  0  0  0  0  0  0  0  0  0  0
    2.5981   -1.5000    0.0000 C   0  0  0  0  0  0  0  0  0  0  0  0
    1.2990   -2.2500    0.0000 O   0  0  0  0  0  0  0  0  0  0  0  0
    0.0000    0.0000    0.0000 R#  0  0  0  0  0  0  0  0  0  0  0  0
    3.8971   -2.2500    0.0000 R#  0  0  0  0  0  0  0  0  0  0  0  0
  1  2  1  0
  2  3  1  0
  4  3  1  6
  4  5  1  0
  5  8  1  0
  4  6  1  0
  6  9  1  0
  6  7  2  0
M  RGP  2   8   1   9   2
V    8 *
V    9 *
M  END
>  <m_name>  (126)
D-norvaline

>  <symbol>  (126)
dNva

>  <m_abbr>  (126)
dNva

>  <m_type>  (126)
aa

>  <m_subtype>  (126)
non-natural

>  <m_RgroupIdx>  (126)
7,8,None,None

>  <m_Rgroups>  (126)
H,OH,None,None

>  <m_attachmentPointIdx>  (126)
4,5,None,None

>  <natAnalog>  (126)
V

$$$$

     RDKit          2D

 10  9  0  0  0  0  0  0  0  0999 V2000
    3.8971    5.2500    0.0000 C   0  0  0  0  0  0  0  0  0  0  0  0
    2.5981    4.5000    0.0000 C   0  0  0  0  0  0  0  0  0  0  0  0
    2.5981    3.0000    0.0000 C   0  0  0  0  0  0  0  0  0  0  0  0
    1.2990    2.2500    0.0000 C   0  0  0  0  0  0  0  0  0  0  0  0
    1.2990    0.7500    0.0000 N   0  0  0  0  0  0  0  0  0  0  0  0
    2.5981   -0.0000    0.0000 C   0  0  0  0  0  0  0  0  0  0  0  0
    0.0000    3.0000    0.0000 C   0  0  0  0  0  0  0  0  0  0  0  0
   -1.2990    2.2500    0.0000 O   0  0  0  0  0  0  0  0  0  0  0  0
    0.0000    0.0000    0.0000 R#  0  0  0  0  0  0  0  0  0  0  0  0
    0.0000    4.5000    0.0000 R#  0  0  0  0  0  0  0  0  0  0  0  0
  1  2  1  0
  2  3  1  0
  4  3  1  6
  4  5  1  0
  5  6  1  0
  5  9  1  0
  4  7  1  0
  7 10  1  0
  7  8  2  0
M  RGP  2   9   1  10   2
V    9 *
V   10 *
M  END
>  <m_name>  (127)
N-methyl-L-norvaline

>  <symbol>  (127)
Me_Nva

>  <m_abbr>  (127)
Me_Nva

>  <m_type>  (127)
aa

>  <m_subtype>  (127)
non-natural

>  <m_RgroupIdx>  (127)
8,9,None,None

>  <m_Rgroups>  (127)
H,OH,None,None

>  <m_attachmentPointIdx>  (127)
4,6,None,None

>  <natAnalog>  (127)
V

$$$$

     RDKit          2D

 10  9  0  0  0  0  0  0  0  0999 V2000
    3.8971    5.2500    0.0000 C   0  0  0  0  0  0  0  0  0  0  0  0
    2.5981    4.5000    0.0000 C   0  0  0  0  0  0  0  0  0  0  0  0
    2.5981    3.0000    0.0000 C   0  0  0  0  0  0  0  0  0  0  0  0
    1.2990    2.2500    0.0000 C   0  0  0  0  0  0  0  0  0  0  0  0
    1.2990    0.7500    0.0000 N   0  0  0  0  0  0  0  0  0  0  0  0
    2.5981   -0.0000    0.0000 C   0  0  0  0  0  0  0  0  0  0  0  0
    0.0000    3.0000    0.0000 C   0  0  0  0  0  0  0  0  0  0  0  0
   -1.2990    2.2500    0.0000 O   0  0  0  0  0  0  0  0  0  0  0  0
    0.0000    0.0000    0.0000 R#  0  0  0  0  0  0  0  0  0  0  0  0
    0.0000    4.5000    0.0000 R#  0  0  0  0  0  0  0  0  0  0  0  0
  1  2  1  0
  2  3  1  0
  4  3  1  1
  4  5  1  0
  5  6  1  0
  5  9  1  0
  4  7  1  0
  7 10  1  0
  7  8  2  0
M  RGP  2   9   1  10   2
V    9 *
V   10 *
M  END
>  <m_name>  (128)
N-methyl-D-norvaline

>  <symbol>  (128)
Me_dNva

>  <m_abbr>  (128)
Me_dNva

>  <m_type>  (128)
aa

>  <m_subtype>  (128)
non-natural

>  <m_RgroupIdx>  (128)
8,9,None,None

>  <m_Rgroups>  (128)
H,OH,None,None

>  <m_attachmentPointIdx>  (128)
4,6,None,None

>  <natAnalog>  (128)
V

$$$$

     RDKit          2D

 15 15  0  0  0  0  0  0  0  0999 V2000
    5.2500   -3.8971    0.0000 N   0  0  0  0  0  0  0  0  0  0  0  0
    6.0000   -2.5981    0.0000 C   0  0  0  0  0  0  0  0  0  0  0  0
    5.2500   -1.2990    0.0000 C   0  0  0  0  0  0  0  0  0  0  0  0
    3.7500   -1.2990    0.0000 C   0  0  0  0  0  0  0  0  0  0  0  0
    3.0000    0.0000    0.0000 C   0  0  0  0  0  0  0  0  0  0  0  0
    1.5000    0.0000    0.0000 C   0  0  0  0  0  0  0  0  0  0  0  0
    0.7500   -1.2990    0.0000 C   0  0  0  0  0  0  0  0  0  0  0  0
   -0.7500   -1.2990    0.0000 C   0  0  0  0  0  0  0  0  0  0  0  0
   -1.5000    0.0000    0.0000 C   0  0  0  0  0  0  0  0  0  0  0  0
   -0.7500    1.2990    0.0000 C   0  0  0  0  0  0  0  0  0  0  0  0
    0.7500    1.2990    0.0000 C   0  0  0  0  0  0  0  0  0  0  0  0
    7.5000   -2.5981    0.0000 C   0  0  0  0  0  0  0  0  0  0  0  0
    8.2500   -1.2990    0.0000 O   0  0  0  0  0  0  0  0  0  0  0  0
    6.0000   -5.1962    0.0000 R#  0  0  0  0  0  0  0  0  0  0  0  0
    8.2500   -3.8971    0.0000 R#  0  0  0  0  0  0  0  0  0  0  0  0
 14  1  1  0
  1  2  1  0
  2  3  1  1
  3  4  1  0
  4  5  1  0
  5  6  1  0
  6  7  2  0
  7  8  1  0
  8  9  2  0
  9 10  1  0
 10 11  2  0
  2 12  1  0
 12 15  1  0
 12 13  2  0
 11  6  1  0
M  RGP  2  14   1  15   2
V   14 *
V   15 *
M  END
>  <m_name>  (129)
5-phenyl-L-norvaline

>  <symbol>  (129)
Nva(Ph)

>  <m_abbr>  (129)
Nva(Ph)

>  <m_type>  (129)
aa

>  <m_subtype>  (129)
non-natural

>  <m_RgroupIdx>  (129)
13,14,None,None

>  <m_Rgroups>  (129)
H,OH,None,None

>  <m_attachmentPointIdx>  (129)
0,11,None,None

>  <natAnalog>  (129)
V

$$$$

     RDKit          2D

 11 10  0  0  0  0  0  0  0  0999 V2000
    1.2990    0.7500    0.0000 N   0  0  0  0  0  0  0  0  0  0  0  0
    2.5981   -0.0000    0.0000 C   0  0  0  0  0  0  0  0  0  0  0  0
    3.8971    0.7500    0.0000 C   0  0  0  0  0  0  0  0  0  0  0  0
    5.1962   -0.0000    0.0000 C   0  0  0  0  0  0  0  0  0  0  0  0
    6.4952    0.7500    0.0000 C   0  0  0  0  0  0  0  0  0  0  0  0
    7.7942   -0.0000    0.0000 N   0  0  0  0  0  0  0  0  0  0  0  0
    2.5981   -1.5000    0.0000 C   0  0  0  0  0  0  0  0  0  0  0  0
    1.2990   -2.2500    0.0000 O   0  0  0  0  0  0  0  0  0  0  0  0
    0.0000    0.0000    0.0000 R#  0  0  0  0  0  0  0  0  0  0  0  0
    3.8971   -2.2500    0.0000 R#  0  0  0  0  0  0  0  0  0  0  0  0
    9.0933    0.7500    0.0000 R#  0  0  0  0  0  0  0  0  0  0  0  0
  9  1  1  0
  1  2  1  0
  2  3  1  1
  3  4  1  0
  4  5  1  0
  5  6  1  0
  6 11  1  0
  2  7  1  0
  7 10  1  0
  7  8  2  0
M  RGP  3   9   1  10   2  11   3
V    9 *
V   10 *
V   11 *
M  END
>  <m_name>  (130)
Ornithine

>  <symbol>  (130)
Orn

>  <m_abbr>  (130)
Orn

>  <m_type>  (130)
aa

>  <m_subtype>  (130)
non-natural

>  <m_RgroupIdx>  (130)
8,9,10,None

>  <m_Rgroups>  (130)
H,OH,H,None

>  <m_attachmentPointIdx>  (130)
0,6,5,None

>  <natAnalog>  (130)
K

$$$$

     RDKit          2D

  9  9  0  0  0  0  0  0  0  0999 V2000
    1.2760    0.0000    0.0000 N   0  0  0  0  0  0  0  0  0  0  0  0
    0.3943    1.2135    0.0000 C   0  0  0  0  0  0  0  0  0  0  0  0
   -1.0323    0.7500    0.0000 C   0  0  0  0  0  0  0  0  0  0  0  0
   -1.0323   -0.7500    0.0000 C   0  0  0  0  0  0  0  0  0  0  0  0
    0.3943   -1.2135    0.0000 C   0  0  0  0  0  0  0  0  0  0  0  0
    0.8578   -2.6401    0.0000 C   0  0  0  0  0  0  0  0  0  0  0  0
    2.3250   -2.9520    0.0000 O   0  0  0  0  0  0  0  0  0  0  0  0
    2.7760    0.0000    0.0000 R#  0  0  0  0  0  0  0  0  0  0  0  0
   -0.1459   -3.7548    0.0000 R#  0  0  0  0  0  0  0  0  0  0  0  0
  8  1  1  0
  1  2  1  0
  2  3  1  0
  3  4  1  0
  4  5  1  0
  5  6  1  6
  6  9  1  0
  6  7  2  0
  5  1  1  0
M  RGP  2   8   1   9   2
V    8 *
V    9 *
M  END
>  <m_name>  (131)
Proline

>  <symbol>  (131)
P

>  <m_abbr>  (131)
P

>  <m_type>  (131)
aa

>  <m_subtype>  (131)
non-natural

>  <m_RgroupIdx>  (131)
7,8,None,None

>  <m_Rgroups>  (131)
H,OH,None,None

>  <m_attachmentPointIdx>  (131)
0,5,None,None

>  <natAnalog>  (131)
P

$$$$

     RDKit          2D

  9  9  0  0  0  0  0  0  0  0999 V2000
    1.2760    0.0000    0.0000 N   0  0  0  0  0  0  0  0  0  0  0  0
    0.3943    1.2135    0.0000 C   0  0  0  0  0  0  0  0  0  0  0  0
   -1.0323    0.7500    0.0000 C   0  0  0  0  0  0  0  0  0  0  0  0
   -1.0323   -0.7500    0.0000 C   0  0  0  0  0  0  0  0  0  0  0  0
    0.3943   -1.2135    0.0000 C   0  0  0  0  0  0  0  0  0  0  0  0
    0.8578   -2.6401    0.0000 C   0  0  0  0  0  0  0  0  0  0  0  0
    2.3250   -2.9520    0.0000 O   0  0  0  0  0  0  0  0  0  0  0  0
    2.7760    0.0000    0.0000 R#  0  0  0  0  0  0  0  0  0  0  0  0
   -0.1459   -3.7548    0.0000 R#  0  0  0  0  0  0  0  0  0  0  0  0
  8  1  1  0
  1  2  1  0
  2  3  1  0
  3  4  1  0
  4  5  1  0
  5  6  1  1
  6  9  1  0
  6  7  2  0
  5  1  1  0
M  RGP  2   8   1   9   2
V    8 *
V    9 *
M  END
>  <m_name>  (132)
D-proline

>  <symbol>  (132)
dP

>  <m_abbr>  (132)
dP

>  <m_type>  (132)
aa

>  <m_subtype>  (132)
non-natural

>  <m_RgroupIdx>  (132)
7,8,None,None

>  <m_Rgroups>  (132)
H,OH,None,None

>  <m_attachmentPointIdx>  (132)
0,5,None,None

>  <natAnalog>  (132)
P

$$$$

     RDKit          2D

 13 13  0  0  0  0  0  0  0  0999 V2000
    3.0000   -2.5981    0.0000 N   0  0  0  0  0  0  0  0  0  0  0  0
    3.7500   -1.2990    0.0000 C   0  0  0  0  0  0  0  0  0  0  0  0
    3.0000    0.0000    0.0000 C   0  0  0  0  0  0  0  0  0  0  0  0
    1.5000    0.0000    0.0000 C   0  0  0  0  0  0  0  0  0  0  0  0
    0.7500   -1.2990    0.0000 C   0  0  0  0  0  0  0  0  0  0  0  0
   -0.7500   -1.2990    0.0000 C   0  0  0  0  0  0  0  0  0  0  0  0
   -1.5000    0.0000    0.0000 C   0  0  0  0  0  0  0  0  0  0  0  0
   -0.7500    1.2990    0.0000 N   0  0  0  0  0  0  0  0  0  0  0  0
    0.7500    1.2990    0.0000 C   0  0  0  0  0  0  0  0  0  0  0  0
    5.2500   -1.2990    0.0000 C   0  0  0  0  0  0  0  0  0  0  0  0
    6.0000    0.0000    0.0000 O   0  0  0  0  0  0  0  0  0  0  0  0
    3.7500   -3.8971    0.0000 R#  0  0  0  0  0  0  0  0  0  0  0  0
    6.0000   -2.5981    0.0000 R#  0  0  0  0  0  0  0  0  0  0  0  0
 12  1  1  0
  1  2  1  0
  2  3  1  1
  3  4  1  0
  4  5  2  0
  5  6  1  0
  6  7  2  0
  7  8  1  0
  8  9  2  0
  2 10  1  0
 10 13  1  0
 10 11  2  0
  9  4  1  0
M  RGP  2  12   1  13   2
V   12 *
V   13 *
M  END
>  <m_name>  (133)
3-(3-pyridyl)-L-alanine

>  <symbol>  (133)
3Pal

>  <m_abbr>  (133)
3Pal

>  <m_type>  (133)
aa

>  <m_subtype>  (133)
non-natural

>  <m_RgroupIdx>  (133)
11,12,None,None

>  <m_Rgroups>  (133)
H,OH,None,None

>  <m_attachmentPointIdx>  (133)
0,9,None,None

>  <natAnalog>  (133)
A

$$$$

     RDKit          2D

 13 13  0  0  0  0  0  0  0  0999 V2000
    3.0000   -2.5981    0.0000 N   0  0  0  0  0  0  0  0  0  0  0  0
    3.7500   -1.2990    0.0000 C   0  0  0  0  0  0  0  0  0  0  0  0
    3.0000    0.0000    0.0000 C   0  0  0  0  0  0  0  0  0  0  0  0
    1.5000    0.0000    0.0000 C   0  0  0  0  0  0  0  0  0  0  0  0
    0.7500   -1.2990    0.0000 C   0  0  0  0  0  0  0  0  0  0  0  0
   -0.7500   -1.2990    0.0000 C   0  0  0  0  0  0  0  0  0  0  0  0
   -1.5000    0.0000    0.0000 N   0  0  0  0  0  0  0  0  0  0  0  0
   -0.7500    1.2990    0.0000 C   0  0  0  0  0  0  0  0  0  0  0  0
    0.7500    1.2990    0.0000 C   0  0  0  0  0  0  0  0  0  0  0  0
    5.2500   -1.2990    0.0000 C   0  0  0  0  0  0  0  0  0  0  0  0
    6.0000    0.0000    0.0000 O   0  0  0  0  0  0  0  0  0  0  0  0
    3.7500   -3.8971    0.0000 R#  0  0  0  0  0  0  0  0  0  0  0  0
    6.0000   -2.5981    0.0000 R#  0  0  0  0  0  0  0  0  0  0  0  0
 12  1  1  0
  1  2  1  0
  2  3  1  1
  3  4  1  0
  4  5  2  0
  5  6  1  0
  6  7  2  0
  7  8  1  0
  8  9  2  0
  2 10  1  0
 10 13  1  0
 10 11  2  0
  9  4  1  0
M  RGP  2  12   1  13   2
V   12 *
V   13 *
M  END
>  <m_name>  (134)
3-(4-pyridyl)-L-alanine

>  <symbol>  (134)
4Pal

>  <m_abbr>  (134)
4Pal

>  <m_type>  (134)
aa

>  <m_subtype>  (134)
non-natural

>  <m_RgroupIdx>  (134)
11,12,None,None

>  <m_Rgroups>  (134)
H,OH,None,None

>  <m_attachmentPointIdx>  (134)
0,9,None,None

>  <natAnalog>  (134)
A

$$$$

     RDKit          2D

 12 12  0  0  0  0  0  0  0  0999 V2000
    3.7500    1.2990    0.0000 N   0  0  0  0  0  0  0  0  0  0  0  0
    3.0000    0.0000    0.0000 C   0  0  0  0  0  0  0  0  0  0  0  0
    3.7500   -1.2990    0.0000 C   0  0  0  0  0  0  0  0  0  0  0  0
    3.0000   -2.5981    0.0000 O   0  0  0  0  0  0  0  0  0  0  0  0
    1.5000    0.0000    0.0000 C   0  0  0  0  0  0  0  0  0  0  0  0
    0.7500   -1.2990    0.0000 C   0  0  0  0  0  0  0  0  0  0  0  0
   -0.7500   -1.2990    0.0000 C   0  0  0  0  0  0  0  0  0  0  0  0
   -1.5000    0.0000    0.0000 C   0  0  0  0  0  0  0  0  0  0  0  0
   -0.7500    1.2990    0.0000 C   0  0  0  0  0  0  0  0  0  0  0  0
    0.7500    1.2990    0.0000 C   0  0  0  0  0  0  0  0  0  0  0  0
    5.2500    1.2990    0.0000 R#  0  0  0  0  0  0  0  0  0  0  0  0
    5.2500   -1.2990    0.0000 R#  0  0  0  0  0  0  0  0  0  0  0  0
 11  1  1  0
  2  1  1  6
  2  3  1  0
  3 12  1  0
  3  4  2  0
  2  5  1  0
  5  6  2  0
  6  7  1  0
  7  8  2  0
  8  9  1  0
  9 10  2  0
 10  5  1  0
M  RGP  2  11   1  12   2
V   11 *
V   12 *
M  END
>  <m_name>  (135)
2-phenyl-L-glycine

>  <symbol>  (135)
Phg

>  <m_abbr>  (135)
Phg

>  <m_type>  (135)
aa

>  <m_subtype>  (135)
non-natural

>  <m_RgroupIdx>  (135)
10,11,None,None

>  <m_Rgroups>  (135)
H,OH,None,None

>  <m_attachmentPointIdx>  (135)
0,2,None,None

>  <natAnalog>  (135)
G

$$$$

     RDKit          2D

 10 10  0  0  0  0  0  0  0  0999 V2000
    1.5000    0.0000    0.0000 N   0  0  0  0  0  0  0  0  0  0  0  0
    0.7500   -1.2990    0.0000 C   0  0  0  0  0  0  0  0  0  0  0  0
   -0.7500   -1.2990    0.0000 C   0  0  0  0  0  0  0  0  0  0  0  0
   -1.5000    0.0000    0.0000 C   0  0  0  0  0  0  0  0  0  0  0  0
   -0.7500    1.2990    0.0000 C   0  0  0  0  0  0  0  0  0  0  0  0
    0.7500    1.2990    0.0000 C   0  0  0  0  0  0  0  0  0  0  0  0
    1.5000    2.5981    0.0000 C   0  0  0  0  0  0  0  0  0  0  0  0
    0.7500    3.8971    0.0000 O   0  0  0  0  0  0  0  0  0  0  0  0
    3.0000    0.0000    0.0000 R#  0  0  0  0  0  0  0  0  0  0  0  0
    3.0000    2.5981    0.0000 R#  0  0  0  0  0  0  0  0  0  0  0  0
  9  1  1  0
  1  2  1  0
  2  3  1  0
  3  4  1  0
  4  5  1  0
  5  6  1  0
  6  7  1  1
  7 10  1  0
  7  8  2  0
  6  1  1  0
M  RGP  2   9   1  10   2
V    9 *
V   10 *
M  END
>  <m_name>  (136)
Pipecolic acid

>  <symbol>  (136)
Pip

>  <m_abbr>  (136)
Pip

>  <m_type>  (136)
aa

>  <m_subtype>  (136)
non-natural

>  <m_RgroupIdx>  (136)
8,9,None,None

>  <m_Rgroups>  (136)
H,OH,None,None

>  <m_attachmentPointIdx>  (136)
0,6,None,None

>  <natAnalog>  (136)
X

$$$$

     RDKit          2D

 10 10  0  0  0  0  0  0  0  0999 V2000
    1.5000    0.0000    0.0000 N   0  0  0  0  0  0  0  0  0  0  0  0
    0.7500   -1.2990    0.0000 C   0  0  0  0  0  0  0  0  0  0  0  0
   -0.7500   -1.2990    0.0000 C   0  0  0  0  0  0  0  0  0  0  0  0
   -1.5000    0.0000    0.0000 C   0  0  0  0  0  0  0  0  0  0  0  0
   -0.7500    1.2990    0.0000 C   0  0  0  0  0  0  0  0  0  0  0  0
    0.7500    1.2990    0.0000 C   0  0  0  0  0  0  0  0  0  0  0  0
    1.5000    2.5981    0.0000 C   0  0  0  0  0  0  0  0  0  0  0  0
    0.7500    3.8971    0.0000 O   0  0  0  0  0  0  0  0  0  0  0  0
    3.0000    0.0000    0.0000 R#  0  0  0  0  0  0  0  0  0  0  0  0
    3.0000    2.5981    0.0000 R#  0  0  0  0  0  0  0  0  0  0  0  0
  9  1  1  0
  1  2  1  0
  2  3  1  0
  3  4  1  0
  4  5  1  0
  5  6  1  0
  6  7  1  6
  7 10  1  0
  7  8  2  0
  6  1  1  0
M  RGP  2   9   1  10   2
V    9 *
V   10 *
M  END
>  <m_name>  (137)
D-pipecolic acid

>  <symbol>  (137)
dPip

>  <m_abbr>  (137)
dPip

>  <m_type>  (137)
aa

>  <m_subtype>  (137)
non-natural

>  <m_RgroupIdx>  (137)
8,9,None,None

>  <m_Rgroups>  (137)
H,OH,None,None

>  <m_attachmentPointIdx>  (137)
0,6,None,None

>  <natAnalog>  (137)
X

$$$$

     RDKit          2D

 15 15  0  0  0  0  0  0  0  0999 V2000
    5.0260   -3.8971    0.0000 N   0  0  0  0  0  0  0  0  0  0  0  0
    5.7760   -2.5981    0.0000 C   0  0  0  0  0  0  0  0  0  0  0  0
    5.0260   -1.2990    0.0000 C   0  0  0  0  0  0  0  0  0  0  0  0
    3.5260   -1.2990    0.0000 C   0  0  0  0  0  0  0  0  0  0  0  0
    2.7760    0.0000    0.0000 C   0  0  0  0  0  0  0  0  0  0  0  0
    3.5260    1.2990    0.0000 O   0  0  0  0  0  0  0  0  0  0  0  0
    1.2760    0.0000    0.0000 N   0  0  0  0  0  0  0  0  0  0  0  0
    0.3943    1.2135    0.0000 C   0  0  0  0  0  0  0  0  0  0  0  0
   -1.0323    0.7500    0.0000 C   0  0  0  0  0  0  0  0  0  0  0  0
   -1.0323   -0.7500    0.0000 C   0  0  0  0  0  0  0  0  0  0  0  0
    0.3943   -1.2135    0.0000 C   0  0  0  0  0  0  0  0  0  0  0  0
    7.2760   -2.5981    0.0000 C   0  0  0  0  0  0  0  0  0  0  0  0
    8.0260   -1.2990    0.0000 O   0  0  0  0  0  0  0  0  0  0  0  0
    5.7760   -5.1962    0.0000 R#  0  0  0  0  0  0  0  0  0  0  0  0
    8.0260   -3.8971    0.0000 R#  0  0  0  0  0  0  0  0  0  0  0  0
 14  1  1  0
  1  2  1  0
  2  3  1  1
  3  4  1  0
  4  5  1  0
  5  6  2  0
  5  7  1  0
  7  8  1  0
  8  9  1  0
  9 10  1  0
 10 11  1  0
  2 12  1  0
 12 15  1  0
 12 13  2  0
 11  7  1  0
M  RGP  2  14   1  15   2
V   14 *
V   15 *
M  END
>  <m_name>  (138)
N,N-pyrrolidinyl glutamine

>  <symbol>  (138)
Pye

>  <m_abbr>  (138)
Pye

>  <m_type>  (138)
aa

>  <m_subtype>  (138)
non-natural

>  <m_RgroupIdx>  (138)
13,14,None,None

>  <m_Rgroups>  (138)
H,OH,None,None

>  <m_attachmentPointIdx>  (138)
0,11,None,None

>  <natAnalog>  (138)
Q

$$$$

     RDKit          2D

 15 15  0  0  0  0  0  0  0  0999 V2000
    5.0260   -3.8971    0.0000 N   0  0  0  0  0  0  0  0  0  0  0  0
    5.7760   -2.5981    0.0000 C   0  0  0  0  0  0  0  0  0  0  0  0
    5.0260   -1.2990    0.0000 C   0  0  0  0  0  0  0  0  0  0  0  0
    3.5260   -1.2990    0.0000 C   0  0  0  0  0  0  0  0  0  0  0  0
    2.7760    0.0000    0.0000 C   0  0  0  0  0  0  0  0  0  0  0  0
    3.5260    1.2990    0.0000 O   0  0  0  0  0  0  0  0  0  0  0  0
    1.2760    0.0000    0.0000 N   0  0  0  0  0  0  0  0  0  0  0  0
    0.3943    1.2135    0.0000 C   0  0  0  0  0  0  0  0  0  0  0  0
   -1.0323    0.7500    0.0000 C   0  0  0  0  0  0  0  0  0  0  0  0
   -1.0323   -0.7500    0.0000 C   0  0  0  0  0  0  0  0  0  0  0  0
    0.3943   -1.2135    0.0000 C   0  0  0  0  0  0  0  0  0  0  0  0
    7.2760   -2.5981    0.0000 C   0  0  0  0  0  0  0  0  0  0  0  0
    8.0260   -1.2990    0.0000 O   0  0  0  0  0  0  0  0  0  0  0  0
    5.7760   -5.1962    0.0000 R#  0  0  0  0  0  0  0  0  0  0  0  0
    8.0260   -3.8971    0.0000 R#  0  0  0  0  0  0  0  0  0  0  0  0
 14  1  1  0
  1  2  1  0
  2  3  1  6
  3  4  1  0
  4  5  1  0
  5  6  2  0
  5  7  1  0
  7  8  1  0
  8  9  1  0
  9 10  1  0
 10 11  1  0
  2 12  1  0
 12 15  1  0
 12 13  2  0
 11  7  1  0
M  RGP  2  14   1  15   2
V   14 *
V   15 *
M  END
>  <m_name>  (139)
D-N,N-pyrrolidinyl glutamine

>  <symbol>  (139)
dPye

>  <m_abbr>  (139)
dPye

>  <m_type>  (139)
aa

>  <m_subtype>  (139)
non-natural

>  <m_RgroupIdx>  (139)
13,14,None,None

>  <m_Rgroups>  (139)
H,OH,None,None

>  <m_attachmentPointIdx>  (139)
0,11,None,None

>  <natAnalog>  (139)
Q

$$$$

     RDKit          2D

 11 10  0  0  0  0  0  0  0  0999 V2000
    7.7942   -0.0000    0.0000 N   0  0  0  0  0  0  0  0  0  0  0  0
    6.4952    0.7500    0.0000 C   0  0  0  0  0  0  0  0  0  0  0  0
    6.4952    2.2500    0.0000 O   0  0  0  0  0  0  0  0  0  0  0  0
    5.1962   -0.0000    0.0000 C   0  0  0  0  0  0  0  0  0  0  0  0
    3.8971    0.7500    0.0000 C   0  0  0  0  0  0  0  0  0  0  0  0
    2.5981   -0.0000    0.0000 C   0  0  0  0  0  0  0  0  0  0  0  0
    1.2990    0.7500    0.0000 N   0  0  0  0  0  0  0  0  0  0  0  0
    2.5981   -1.5000    0.0000 C   0  0  0  0  0  0  0  0  0  0  0  0
    1.2990   -2.2500    0.0000 O   0  0  0  0  0  0  0  0  0  0  0  0
    0.0000    0.0000    0.0000 R#  0  0  0  0  0  0  0  0  0  0  0  0
    3.8971   -2.2500    0.0000 R#  0  0  0  0  0  0  0  0  0  0  0  0
  1  2  1  0
  2  3  2  0
  2  4  1  0
  4  5  1  0
  6  5  1  1
  6  7  1  0
  7 10  1  0
  6  8  1  0
  8 11  1  0
  8  9  2  0
M  RGP  2  10   1  11   2
V   10 *
V   11 *
M  END
>  <m_name>  (140)
Glutamine

>  <symbol>  (140)
Q

>  <m_abbr>  (140)
Q

>  <m_type>  (140)
aa

>  <m_subtype>  (140)
non-natural

>  <m_RgroupIdx>  (140)
9,10,None,None

>  <m_Rgroups>  (140)
H,OH,None,None

>  <m_attachmentPointIdx>  (140)
6,7,None,None

>  <natAnalog>  (140)
Q

$$$$

     RDKit          2D

 12 11  0  0  0  0  0  0  0  0999 V2000
    2.5981   -0.0000    0.0000 C   0  0  0  0  0  0  0  0  0  0  0  0
    1.2990    0.7500    0.0000 N   0  0  0  0  0  0  0  0  0  0  0  0
    1.2990    2.2500    0.0000 C   0  0  0  0  0  0  0  0  0  0  0  0
    2.5981    3.0000    0.0000 C   0  0  0  0  0  0  0  0  0  0  0  0
    2.5981    4.5000    0.0000 C   0  0  0  0  0  0  0  0  0  0  0  0
    3.8971    5.2500    0.0000 C   0  0  0  0  0  0  0  0  0  0  0  0
    3.8971    6.7500    0.0000 N   0  0  0  0  0  0  0  0  0  0  0  0
    5.1962    4.5000    0.0000 O   0  0  0  0  0  0  0  0  0  0  0  0
    0.0000    3.0000    0.0000 C   0  0  0  0  0  0  0  0  0  0  0  0
   -1.2990    2.2500    0.0000 O   0  0  0  0  0  0  0  0  0  0  0  0
    0.0000    0.0000    0.0000 R#  0  0  0  0  0  0  0  0  0  0  0  0
    0.0000    4.5000    0.0000 R#  0  0  0  0  0  0  0  0  0  0  0  0
  1  2  1  0
  2 11  1  0
  2  3  1  0
  3  4  1  6
  4  5  1  0
  5  6  1  0
  6  7  1  0
  6  8  2  0
  3  9  1  0
  9 12  1  0
  9 10  2  0
M  RGP  2  11   1  12   2
V   11 *
V   12 *
M  END
>  <m_name>  (141)
N-methyl-L-glutamine

>  <symbol>  (141)
meQ

>  <m_abbr>  (141)
meQ

>  <m_type>  (141)
aa

>  <m_subtype>  (141)
non-natural

>  <m_RgroupIdx>  (141)
10,11,None,None

>  <m_Rgroups>  (141)
H,OH,None,None

>  <m_attachmentPointIdx>  (141)
1,8,None,None

>  <natAnalog>  (141)
Q

$$$$

     RDKit          2D

 12 11  0  0  0  0  0  0  0  0999 V2000
    9.0933    0.7500    0.0000 C   0  0  0  0  0  0  0  0  0  0  0  0
    7.7942   -0.0000    0.0000 N   0  0  0  0  0  0  0  0  0  0  0  0
    6.4952    0.7500    0.0000 C   0  0  0  0  0  0  0  0  0  0  0  0
    6.4952    2.2500    0.0000 O   0  0  0  0  0  0  0  0  0  0  0  0
    5.1962   -0.0000    0.0000 C   0  0  0  0  0  0  0  0  0  0  0  0
    3.8971    0.7500    0.0000 C   0  0  0  0  0  0  0  0  0  0  0  0
    2.5981   -0.0000    0.0000 C   0  0  0  0  0  0  0  0  0  0  0  0
    1.2990    0.7500    0.0000 N   0  0  0  0  0  0  0  0  0  0  0  0
    2.5981   -1.5000    0.0000 C   0  0  0  0  0  0  0  0  0  0  0  0
    1.2990   -2.2500    0.0000 O   0  0  0  0  0  0  0  0  0  0  0  0
    0.0000    0.0000    0.0000 R#  0  0  0  0  0  0  0  0  0  0  0  0
    3.8971   -2.2500    0.0000 R#  0  0  0  0  0  0  0  0  0  0  0  0
  1  2  1  0
  2  3  1  0
  3  4  2  0
  3  5  1  0
  5  6  1  0
  7  6  1  1
  7  8  1  0
  8 11  1  0
  7  9  1  0
  9 12  1  0
  9 10  2  0
M  RGP  2  11   1  12   2
V   11 *
V   12 *
M  END
>  <m_name>  (142)
N5-methyl-L-glutamine

>  <symbol>  (142)
Gln(Me)

>  <m_abbr>  (142)
Gln(Me)

>  <m_type>  (142)
aa

>  <m_subtype>  (142)
non-natural

>  <m_RgroupIdx>  (142)
10,11,None,None

>  <m_Rgroups>  (142)
H,OH,None,None

>  <m_attachmentPointIdx>  (142)
7,8,None,None

>  <natAnalog>  (142)
Q

$$$$

     RDKit          2D

 13 12  0  0  0  0  0  0  0  0999 V2000
    9.0933    0.7500    0.0000 C   0  0  0  0  0  0  0  0  0  0  0  0
    7.7942   -0.0000    0.0000 N   0  0  0  0  0  0  0  0  0  0  0  0
    7.7942   -1.5000    0.0000 C   0  0  0  0  0  0  0  0  0  0  0  0
    6.4952    0.7500    0.0000 C   0  0  0  0  0  0  0  0  0  0  0  0
    6.4952    2.2500    0.0000 O   0  0  0  0  0  0  0  0  0  0  0  0
    5.1962   -0.0000    0.0000 C   0  0  0  0  0  0  0  0  0  0  0  0
    3.8971    0.7500    0.0000 C   0  0  0  0  0  0  0  0  0  0  0  0
    2.5981   -0.0000    0.0000 C   0  0  0  0  0  0  0  0  0  0  0  0
    1.2990    0.7500    0.0000 N   0  0  0  0  0  0  0  0  0  0  0  0
    2.5981   -1.5000    0.0000 C   0  0  0  0  0  0  0  0  0  0  0  0
    1.2990   -2.2500    0.0000 O   0  0  0  0  0  0  0  0  0  0  0  0
    0.0000    0.0000    0.0000 R#  0  0  0  0  0  0  0  0  0  0  0  0
    3.8971   -2.2500    0.0000 R#  0  0  0  0  0  0  0  0  0  0  0  0
  1  2  1  0
  2  3  1  0
  2  4  1  0
  4  5  2  0
  4  6  1  0
  6  7  1  0
  8  7  1  1
  8  9  1  0
  9 12  1  0
  8 10  1  0
 10 13  1  0
 10 11  2  0
M  RGP  2  12   1  13   2
V   12 *
V   13 *
M  END
>  <m_name>  (143)
N5,N5-dimethyl-L-glutamine

>  <symbol>  (143)
Gln(Me2)

>  <m_abbr>  (143)
Gln(Me2)

>  <m_type>  (143)
aa

>  <m_subtype>  (143)
non-natural

>  <m_RgroupIdx>  (143)
11,12,None,None

>  <m_Rgroups>  (143)
H,OH,None,None

>  <m_attachmentPointIdx>  (143)
8,9,None,None

>  <natAnalog>  (143)
Q

$$$$

     RDKit          2D

 13 12  0  0  0  0  0  0  0  0999 V2000
    9.0933    0.7500    0.0000 C   0  0  0  0  0  0  0  0  0  0  0  0
    7.7942   -0.0000    0.0000 N   0  0  0  0  0  0  0  0  0  0  0  0
    7.7942   -1.5000    0.0000 C   0  0  0  0  0  0  0  0  0  0  0  0
    6.4952    0.7500    0.0000 C   0  0  0  0  0  0  0  0  0  0  0  0
    6.4952    2.2500    0.0000 O   0  0  0  0  0  0  0  0  0  0  0  0
    5.1962   -0.0000    0.0000 C   0  0  0  0  0  0  0  0  0  0  0  0
    3.8971    0.7500    0.0000 C   0  0  0  0  0  0  0  0  0  0  0  0
    2.5981   -0.0000    0.0000 C   0  0  0  0  0  0  0  0  0  0  0  0
    1.2990    0.7500    0.0000 N   0  0  0  0  0  0  0  0  0  0  0  0
    2.5981   -1.5000    0.0000 C   0  0  0  0  0  0  0  0  0  0  0  0
    1.2990   -2.2500    0.0000 O   0  0  0  0  0  0  0  0  0  0  0  0
    0.0000    0.0000    0.0000 R#  0  0  0  0  0  0  0  0  0  0  0  0
    3.8971   -2.2500    0.0000 R#  0  0  0  0  0  0  0  0  0  0  0  0
  1  2  1  0
  2  3  1  0
  2  4  1  0
  4  5  2  0
  4  6  1  0
  6  7  1  0
  8  7  1  6
  8  9  1  0
  9 12  1  0
  8 10  1  0
 10 13  1  0
 10 11  2  0
M  RGP  2  12   1  13   2
V   12 *
V   13 *
M  END
>  <m_name>  (144)
N5,N5-dimethyl-D-glutamine

>  <symbol>  (144)
dGln(Me2)

>  <m_abbr>  (144)
dGln(Me2)

>  <m_type>  (144)
aa

>  <m_subtype>  (144)
non-natural

>  <m_RgroupIdx>  (144)
11,12,None,None

>  <m_Rgroups>  (144)
H,OH,None,None

>  <m_attachmentPointIdx>  (144)
8,9,None,None

>  <natAnalog>  (144)
Q

$$$$

     RDKit          2D

 15 14  0  0  0  0  0  0  0  0999 V2000
   10.3923    1.5000    0.0000 C   0  0  0  0  0  0  0  0  0  0  0  0
    9.0933    0.7500    0.0000 S   0  0  0  0  0  0  0  0  0  0  0  0
    8.3433    2.0490    0.0000 O   0  0  0  0  0  0  0  0  0  0  0  0
    9.8433   -0.5490    0.0000 O   0  0  0  0  0  0  0  0  0  0  0  0
    7.7942   -0.0000    0.0000 N   0  0  0  0  0  0  0  0  0  0  0  0
    6.4952    0.7500    0.0000 C   0  0  0  0  0  0  0  0  0  0  0  0
    6.4952    2.2500    0.0000 O   0  0  0  0  0  0  0  0  0  0  0  0
    5.1962   -0.0000    0.0000 C   0  0  0  0  0  0  0  0  0  0  0  0
    3.8971    0.7500    0.0000 C   0  0  0  0  0  0  0  0  0  0  0  0
    2.5981   -0.0000    0.0000 C   0  0  0  0  0  0  0  0  0  0  0  0
    1.2990    0.7500    0.0000 N   0  0  0  0  0  0  0  0  0  0  0  0
    2.5981   -1.5000    0.0000 C   0  0  0  0  0  0  0  0  0  0  0  0
    1.2990   -2.2500    0.0000 O   0  0  0  0  0  0  0  0  0  0  0  0
    0.0000    0.0000    0.0000 R#  0  0  0  0  0  0  0  0  0  0  0  0
    3.8971   -2.2500    0.0000 R#  0  0  0  0  0  0  0  0  0  0  0  0
  1  2  1  0
  2  3  2  0
  2  4  2  0
  2  5  1  0
  5  6  1  0
  6  7  2  0
  6  8  1  0
  8  9  1  0
 10  9  1  1
 10 11  1  0
 11 14  1  0
 10 12  1  0
 12 15  1  0
 12 13  2  0
M  RGP  2  14   1  15   2
V   14 *
V   15 *
M  END
>  <m_name>  (145)
N5-mesyl-L-glutamine

>  <symbol>  (145)
Gln(Mes)

>  <m_abbr>  (145)
Gln(Mes)

>  <m_type>  (145)
aa

>  <m_subtype>  (145)
non-natural

>  <m_RgroupIdx>  (145)
13,14,None,None

>  <m_Rgroups>  (145)
H,OH,None,None

>  <m_attachmentPointIdx>  (145)
10,11,None,None

>  <natAnalog>  (145)
Q

$$$$

     RDKit          2D

 13 12  0  0  0  0  0  0  0  0999 V2000
   10.3923   -0.0000    0.0000 N   0  0  0  0  0  0  0  0  0  0  0  0
    9.0933    0.7500    0.0000 C   0  0  0  0  0  0  0  0  0  0  0  0
    9.0933    2.2500    0.0000 N   0  0  0  0  0  0  0  0  0  0  0  0
    7.7942   -0.0000    0.0000 N   0  0  0  0  0  0  0  0  0  0  0  0
    6.4952    0.7500    0.0000 C   0  0  0  0  0  0  0  0  0  0  0  0
    5.1962   -0.0000    0.0000 C   0  0  0  0  0  0  0  0  0  0  0  0
    3.8971    0.7500    0.0000 C   0  0  0  0  0  0  0  0  0  0  0  0
    2.5981   -0.0000    0.0000 C   0  0  0  0  0  0  0  0  0  0  0  0
    1.2990    0.7500    0.0000 N   0  0  0  0  0  0  0  0  0  0  0  0
    2.5981   -1.5000    0.0000 C   0  0  0  0  0  0  0  0  0  0  0  0
    1.2990   -2.2500    0.0000 O   0  0  0  0  0  0  0  0  0  0  0  0
    0.0000    0.0000    0.0000 R#  0  0  0  0  0  0  0  0  0  0  0  0
    3.8971   -2.2500    0.0000 R#  0  0  0  0  0  0  0  0  0  0  0  0
  1  2  1  0
  2  3  2  0
  2  4  1  0
  4  5  1  0
  5  6  1  0
  6  7  1  0
  8  7  1  1
  8  9  1  0
  9 12  1  0
  8 10  1  0
 10 13  1  0
 10 11  2  0
M  RGP  2  12   1  13   2
V   12 *
V   13 *
M  END
>  <m_name>  (146)
Arginine

>  <symbol>  (146)
R

>  <m_abbr>  (146)
R

>  <m_type>  (146)
aa

>  <m_subtype>  (146)
non-natural

>  <m_RgroupIdx>  (146)
11,12,None,None

>  <m_Rgroups>  (146)
H,OH,None,None

>  <m_attachmentPointIdx>  (146)
8,9,None,None

>  <natAnalog>  (146)
R

$$$$

     RDKit          2D

 13 12  0  0  0  0  0  0  0  0999 V2000
   10.3923   -0.0000    0.0000 N   0  0  0  0  0  0  0  0  0  0  0  0
    9.0933    0.7500    0.0000 C   0  0  0  0  0  0  0  0  0  0  0  0
    9.0933    2.2500    0.0000 N   0  0  0  0  0  0  0  0  0  0  0  0
    7.7942   -0.0000    0.0000 N   0  0  0  0  0  0  0  0  0  0  0  0
    6.4952    0.7500    0.0000 C   0  0  0  0  0  0  0  0  0  0  0  0
    5.1962   -0.0000    0.0000 C   0  0  0  0  0  0  0  0  0  0  0  0
    3.8971    0.7500    0.0000 C   0  0  0  0  0  0  0  0  0  0  0  0
    2.5981   -0.0000    0.0000 C   0  0  0  0  0  0  0  0  0  0  0  0
    1.2990    0.7500    0.0000 N   0  0  0  0  0  0  0  0  0  0  0  0
    2.5981   -1.5000    0.0000 C   0  0  0  0  0  0  0  0  0  0  0  0
    1.2990   -2.2500    0.0000 O   0  0  0  0  0  0  0  0  0  0  0  0
    0.0000    0.0000    0.0000 R#  0  0  0  0  0  0  0  0  0  0  0  0
    3.8971   -2.2500    0.0000 R#  0  0  0  0  0  0  0  0  0  0  0  0
  1  2  1  0
  2  3  2  0
  2  4  1  0
  4  5  1  0
  5  6  1  0
  6  7  1  0
  8  7  1  6
  8  9  1  0
  9 12  1  0
  8 10  1  0
 10 13  1  0
 10 11  2  0
M  RGP  2  12   1  13   2
V   12 *
V   13 *
M  END
>  <m_name>  (147)
D-arginine

>  <symbol>  (147)
dR

>  <m_abbr>  (147)
dR

>  <m_type>  (147)
aa

>  <m_subtype>  (147)
non-natural

>  <m_RgroupIdx>  (147)
11,12,None,None

>  <m_Rgroups>  (147)
H,OH,None,None

>  <m_attachmentPointIdx>  (147)
8,9,None,None

>  <natAnalog>  (147)
R

$$$$

     RDKit          2D

 15 14  0  0  0  0  0  0  0  0999 V2000
   -0.7500   -1.2990    0.0000 C   0  0  0  0  0  0  0  0  0  0  0  0
    0.0000    0.0000    0.0000 N   0  0  0  0  0  0  0  0  0  0  0  0
    1.5000    0.0000    0.0000 C   0  0  0  0  0  0  0  0  0  0  0  0
    2.2500   -1.2990    0.0000 N   0  0  0  0  0  0  0  0  0  0  0  0
    3.7500   -1.2990    0.0000 C   0  0  0  0  0  0  0  0  0  0  0  0
    2.2500    1.2990    0.0000 N   0  0  0  0  0  0  0  0  0  0  0  0
    3.7500    1.2990    0.0000 C   0  0  0  0  0  0  0  0  0  0  0  0
    4.5000    2.5981    0.0000 C   0  0  0  0  0  0  0  0  0  0  0  0
    6.0000    2.5981    0.0000 C   0  0  0  0  0  0  0  0  0  0  0  0
    6.7500    3.8971    0.0000 C   0  0  0  0  0  0  0  0  0  0  0  0
    6.0000    5.1962    0.0000 N   0  0  0  0  0  0  0  0  0  0  0  0
    8.2500    3.8971    0.0000 C   0  0  0  0  0  0  0  0  0  0  0  0
    9.0000    2.5981    0.0000 O   0  0  0  0  0  0  0  0  0  0  0  0
    6.7500    6.4952    0.0000 R#  0  0  0  0  0  0  0  0  0  0  0  0
    9.0000    5.1962    0.0000 R#  0  0  0  0  0  0  0  0  0  0  0  0
  1  2  1  0
  2  3  2  0
  3  4  1  0
  4  5  1  0
  3  6  1  0
  6  7  1  0
  7  8  1  0
  8  9  1  0
 10  9  1  6
 10 11  1  0
 11 14  1  0
 10 12  1  0
 12 15  1  0
 12 13  2  0
M  RGP  2  14   1  15   2
V   14 *
V   15 *
M  END
>  <m_name>  (148)
N3,N4-dimethylarginine

>  <symbol>  (148)
Arg(Me,Me)

>  <m_abbr>  (148)
Arg(Me,Me)

>  <m_type>  (148)
aa

>  <m_subtype>  (148)
non-natural

>  <m_RgroupIdx>  (148)
13,14,None,None

>  <m_Rgroups>  (148)
H,OH,None,None

>  <m_attachmentPointIdx>  (148)
10,11,None,None

>  <natAnalog>  (148)
R

$$$$

     RDKit          2D

  8  7  0  0  0  0  0  0  0  0999 V2000
    5.1962   -0.0000    0.0000 O   0  0  0  0  0  0  0  0  0  0  0  0
    3.8971    0.7500    0.0000 C   0  0  0  0  0  0  0  0  0  0  0  0
    2.5981   -0.0000    0.0000 C   0  0  0  0  0  0  0  0  0  0  0  0
    1.2990    0.7500    0.0000 N   0  0  0  0  0  0  0  0  0  0  0  0
    2.5981   -1.5000    0.0000 C   0  0  0  0  0  0  0  0  0  0  0  0
    1.2990   -2.2500    0.0000 O   0  0  0  0  0  0  0  0  0  0  0  0
    0.0000    0.0000    0.0000 R#  0  0  0  0  0  0  0  0  0  0  0  0
    3.8971   -2.2500    0.0000 R#  0  0  0  0  0  0  0  0  0  0  0  0
  1  2  1  0
  3  2  1  1
  3  4  1  0
  4  7  1  0
  3  5  1  0
  5  8  1  0
  5  6  2  0
M  RGP  2   7   1   8   2
V    7 *
V    8 *
M  END
>  <m_name>  (149)
Serine

>  <symbol>  (149)
S

>  <m_abbr>  (149)
S

>  <m_type>  (149)
aa

>  <m_subtype>  (149)
non-natural

>  <m_RgroupIdx>  (149)
6,7,None,None

>  <m_Rgroups>  (149)
H,OH,None,None

>  <m_attachmentPointIdx>  (149)
3,4,None,None

>  <natAnalog>  (149)
S

$$$$

     RDKit          2D

  8  7  0  0  0  0  0  0  0  0999 V2000
    5.1962   -0.0000    0.0000 O   0  0  0  0  0  0  0  0  0  0  0  0
    3.8971    0.7500    0.0000 C   0  0  0  0  0  0  0  0  0  0  0  0
    2.5981   -0.0000    0.0000 C   0  0  0  0  0  0  0  0  0  0  0  0
    1.2990    0.7500    0.0000 N   0  0  0  0  0  0  0  0  0  0  0  0
    2.5981   -1.5000    0.0000 C   0  0  0  0  0  0  0  0  0  0  0  0
    1.2990   -2.2500    0.0000 O   0  0  0  0  0  0  0  0  0  0  0  0
    0.0000    0.0000    0.0000 R#  0  0  0  0  0  0  0  0  0  0  0  0
    3.8971   -2.2500    0.0000 R#  0  0  0  0  0  0  0  0  0  0  0  0
  1  2  1  0
  3  2  1  6
  3  4  1  0
  4  7  1  0
  3  5  1  0
  5  8  1  0
  5  6  2  0
M  RGP  2   7   1   8   2
V    7 *
V    8 *
M  END
>  <m_name>  (150)
D-serine

>  <symbol>  (150)
dS

>  <m_abbr>  (150)
dS

>  <m_type>  (150)
aa

>  <m_subtype>  (150)
non-natural

>  <m_RgroupIdx>  (150)
6,7,None,None

>  <m_Rgroups>  (150)
H,OH,None,None

>  <m_attachmentPointIdx>  (150)
3,4,None,None

>  <natAnalog>  (150)
S

$$$$

     RDKit          2D

  9  8  0  0  0  0  0  0  0  0999 V2000
    2.5981   -0.0000    0.0000 C   0  0  0  0  0  0  0  0  0  0  0  0
    1.2990    0.7500    0.0000 N   0  0  0  0  0  0  0  0  0  0  0  0
    1.2990    2.2500    0.0000 C   0  0  0  0  0  0  0  0  0  0  0  0
    2.5981    3.0000    0.0000 C   0  0  0  0  0  0  0  0  0  0  0  0
    2.5981    4.5000    0.0000 O   0  0  0  0  0  0  0  0  0  0  0  0
    0.0000    3.0000    0.0000 C   0  0  0  0  0  0  0  0  0  0  0  0
   -1.2990    2.2500    0.0000 O   0  0  0  0  0  0  0  0  0  0  0  0
    0.0000    0.0000    0.0000 R#  0  0  0  0  0  0  0  0  0  0  0  0
    0.0000    4.5000    0.0000 R#  0  0  0  0  0  0  0  0  0  0  0  0
  1  2  1  0
  2  8  1  0
  2  3  1  0
  3  4  1  6
  4  5  1  0
  3  6  1  0
  6  9  1  0
  6  7  2  0
M  RGP  2   8   1   9   2
V    8 *
V    9 *
M  END
>  <m_name>  (151)
N-methyl-L-serine

>  <symbol>  (151)
meS

>  <m_abbr>  (151)
meS

>  <m_type>  (151)
aa

>  <m_subtype>  (151)
non-natural

>  <m_RgroupIdx>  (151)
7,8,None,None

>  <m_Rgroups>  (151)
H,OH,None,None

>  <m_attachmentPointIdx>  (151)
1,5,None,None

>  <natAnalog>  (151)
S

$$$$

     RDKit          2D

 11 10  0  0  0  0  0  0  0  0999 V2000
    7.7942   -0.0000    0.0000 C   0  0  0  0  0  0  0  0  0  0  0  0
    6.4952    0.7500    0.0000 C   0  0  0  0  0  0  0  0  0  0  0  0
    6.4952    2.2500    0.0000 O   0  0  0  0  0  0  0  0  0  0  0  0
    5.1962   -0.0000    0.0000 O   0  0  0  0  0  0  0  0  0  0  0  0
    3.8971    0.7500    0.0000 C   0  0  0  0  0  0  0  0  0  0  0  0
    2.5981   -0.0000    0.0000 C   0  0  0  0  0  0  0  0  0  0  0  0
    1.2990    0.7500    0.0000 N   0  0  0  0  0  0  0  0  0  0  0  0
    2.5981   -1.5000    0.0000 C   0  0  0  0  0  0  0  0  0  0  0  0
    1.2990   -2.2500    0.0000 O   0  0  0  0  0  0  0  0  0  0  0  0
    0.0000    0.0000    0.0000 R#  0  0  0  0  0  0  0  0  0  0  0  0
    3.8971   -2.2500    0.0000 R#  0  0  0  0  0  0  0  0  0  0  0  0
  1  2  1  0
  2  3  2  0
  2  4  1  0
  4  5  1  0
  6  5  1  1
  6  7  1  0
  7 10  1  0
  6  8  1  0
  8 11  1  0
  8  9  2  0
M  RGP  2  10   1  11   2
V   10 *
V   11 *
M  END
>  <m_name>  (152)
O-acetyl-L-serine

>  <symbol>  (152)
Ser(Ac)

>  <m_abbr>  (152)
Ser(Ac)

>  <m_type>  (152)
aa

>  <m_subtype>  (152)
non-natural

>  <m_RgroupIdx>  (152)
9,10,None,None

>  <m_Rgroups>  (152)
H,OH,None,None

>  <m_attachmentPointIdx>  (152)
6,7,None,None

>  <natAnalog>  (152)
S

$$$$

     RDKit          2D

 15 15  0  0  0  0  0  0  0  0999 V2000
    5.2500   -3.8971    0.0000 N   0  0  0  0  0  0  0  0  0  0  0  0
    6.0000   -2.5981    0.0000 C   0  0  0  0  0  0  0  0  0  0  0  0
    5.2500   -1.2990    0.0000 C   0  0  0  0  0  0  0  0  0  0  0  0
    3.7500   -1.2990    0.0000 O   0  0  0  0  0  0  0  0  0  0  0  0
    3.0000    0.0000    0.0000 C   0  0  0  0  0  0  0  0  0  0  0  0
    1.5000    0.0000    0.0000 C   0  0  0  0  0  0  0  0  0  0  0  0
    0.7500   -1.2990    0.0000 C   0  0  0  0  0  0  0  0  0  0  0  0
   -0.7500   -1.2990    0.0000 C   0  0  0  0  0  0  0  0  0  0  0  0
   -1.5000    0.0000    0.0000 C   0  0  0  0  0  0  0  0  0  0  0  0
   -0.7500    1.2990    0.0000 C   0  0  0  0  0  0  0  0  0  0  0  0
    0.7500    1.2990    0.0000 C   0  0  0  0  0  0  0  0  0  0  0  0
    7.5000   -2.5981    0.0000 C   0  0  0  0  0  0  0  0  0  0  0  0
    8.2500   -1.2990    0.0000 O   0  0  0  0  0  0  0  0  0  0  0  0
    6.0000   -5.1962    0.0000 R#  0  0  0  0  0  0  0  0  0  0  0  0
    8.2500   -3.8971    0.0000 R#  0  0  0  0  0  0  0  0  0  0  0  0
 14  1  1  0
  1  2  1  0
  2  3  1  1
  3  4  1  0
  4  5  1  0
  5  6  1  0
  6  7  2  0
  7  8  1  0
  8  9  2  0
  9 10  1  0
 10 11  2  0
  2 12  1  0
 12 15  1  0
 12 13  2  0
 11  6  1  0
M  RGP  2  14   1  15   2
V   14 *
V   15 *
M  END
>  <m_name>  (153)
O-benzyl-L-serine

>  <symbol>  (153)
Ser(Bn)

>  <m_abbr>  (153)
Ser(Bn)

>  <m_type>  (153)
aa

>  <m_subtype>  (153)
non-natural

>  <m_RgroupIdx>  (153)
13,14,None,None

>  <m_Rgroups>  (153)
H,OH,None,None

>  <m_attachmentPointIdx>  (153)
0,11,None,None

>  <natAnalog>  (153)
S

$$$$

     RDKit          2D

 13 12  0  0  0  0  0  0  0  0999 V2000
   10.3923   -0.0000    0.0000 C   0  0  0  0  0  0  0  0  0  0  0  0
    9.0933    0.7500    0.0000 N   0  0  0  0  0  0  0  0  0  0  0  0
    9.0933    2.2500    0.0000 C   0  0  0  0  0  0  0  0  0  0  0  0
    7.7942   -0.0000    0.0000 C   0  0  0  0  0  0  0  0  0  0  0  0
    6.4952    0.7500    0.0000 C   0  0  0  0  0  0  0  0  0  0  0  0
    5.1962   -0.0000    0.0000 O   0  0  0  0  0  0  0  0  0  0  0  0
    3.8971    0.7500    0.0000 C   0  0  0  0  0  0  0  0  0  0  0  0
    2.5981   -0.0000    0.0000 C   0  0  0  0  0  0  0  0  0  0  0  0
    1.2990    0.7500    0.0000 N   0  0  0  0  0  0  0  0  0  0  0  0
    2.5981   -1.5000    0.0000 C   0  0  0  0  0  0  0  0  0  0  0  0
    1.2990   -2.2500    0.0000 O   0  0  0  0  0  0  0  0  0  0  0  0
    0.0000    0.0000    0.0000 R#  0  0  0  0  0  0  0  0  0  0  0  0
    3.8971   -2.2500    0.0000 R#  0  0  0  0  0  0  0  0  0  0  0  0
  1  2  1  0
  2  3  1  0
  2  4  1  0
  4  5  1  0
  5  6  1  0
  6  7  1  0
  8  7  1  1
  8  9  1  0
  9 12  1  0
  8 10  1  0
 10 13  1  0
 10 11  2  0
M  RGP  2  12   1  13   2
V   12 *
V   13 *
M  END
>  <m_name>  (154)
O-(2-dimethylaminoethyl)-L-serine

>  <symbol>  (154)
Ser(EtNMe2)

>  <m_abbr>  (154)
Ser(EtNMe2)

>  <m_type>  (154)
aa

>  <m_subtype>  (154)
non-natural

>  <m_RgroupIdx>  (154)
11,12,None,None

>  <m_Rgroups>  (154)
H,OH,None,None

>  <m_attachmentPointIdx>  (154)
8,9,None,None

>  <natAnalog>  (154)
S

$$$$

     RDKit          2D

 11 10  0  0  0  0  0  0  0  0999 V2000
    1.2990    0.7500    0.0000 N   0  0  0  0  0  0  0  0  0  0  0  0
    2.5981   -0.0000    0.0000 C   0  0  0  0  0  0  0  0  0  0  0  0
    3.8971    0.7500    0.0000 C   0  0  0  0  0  0  0  0  0  0  0  0
    5.1962   -0.0000    0.0000 O   0  0  0  0  0  0  0  0  0  0  0  0
    6.4952    0.7500    0.0000 C   0  0  0  0  0  0  0  0  0  0  0  0
    7.7942   -0.0000    0.0000 C   0  0  0  0  0  0  0  0  0  0  0  0
    9.0933    0.7500    0.0000 O   0  0  0  0  0  0  0  0  0  0  0  0
    2.5981   -1.5000    0.0000 C   0  0  0  0  0  0  0  0  0  0  0  0
    1.2990   -2.2500    0.0000 O   0  0  0  0  0  0  0  0  0  0  0  0
    0.0000    0.0000    0.0000 R#  0  0  0  0  0  0  0  0  0  0  0  0
    3.8971   -2.2500    0.0000 R#  0  0  0  0  0  0  0  0  0  0  0  0
 10  1  1  0
  1  2  1  0
  2  3  1  1
  3  4  1  0
  4  5  1  0
  5  6  1  0
  6  7  1  0
  2  8  1  0
  8 11  1  0
  8  9  2  0
M  RGP  2  10   1  11   2
V   10 *
V   11 *
M  END
>  <m_name>  (155)
O-(2-hydroxyethyl)-L-serine

>  <symbol>  (155)
Ser(EtOH)

>  <m_abbr>  (155)
Ser(EtOH)

>  <m_type>  (155)
aa

>  <m_subtype>  (155)
non-natural

>  <m_RgroupIdx>  (155)
9,10,None,None

>  <m_Rgroups>  (155)
H,OH,None,None

>  <m_attachmentPointIdx>  (155)
0,7,None,None

>  <natAnalog>  (155)
S

$$$$

     RDKit          2D

 13 12  0  0  0  0  0  0  0  0999 V2000
   10.3923   -0.0000    0.0000 C   0  0  0  0  0  0  0  0  0  0  0  0
    9.0933    0.7500    0.0000 C   0  0  0  0  0  0  0  0  0  0  0  0
    9.0933    2.2500    0.0000 C   0  0  0  0  0  0  0  0  0  0  0  0
    7.7942   -0.0000    0.0000 C   0  0  0  0  0  0  0  0  0  0  0  0
    6.4952    0.7500    0.0000 C   0  0  0  0  0  0  0  0  0  0  0  0
    5.1962   -0.0000    0.0000 O   0  0  0  0  0  0  0  0  0  0  0  0
    3.8971    0.7500    0.0000 C   0  0  0  0  0  0  0  0  0  0  0  0
    2.5981   -0.0000    0.0000 C   0  0  0  0  0  0  0  0  0  0  0  0
    1.2990    0.7500    0.0000 N   0  0  0  0  0  0  0  0  0  0  0  0
    2.5981   -1.5000    0.0000 C   0  0  0  0  0  0  0  0  0  0  0  0
    1.2990   -2.2500    0.0000 O   0  0  0  0  0  0  0  0  0  0  0  0
    0.0000    0.0000    0.0000 R#  0  0  0  0  0  0  0  0  0  0  0  0
    3.8971   -2.2500    0.0000 R#  0  0  0  0  0  0  0  0  0  0  0  0
  1  2  1  0
  2  3  1  0
  2  4  1  0
  4  5  1  0
  5  6  1  0
  6  7  1  0
  8  7  1  1
  8  9  1  0
  9 12  1  0
  8 10  1  0
 10 13  1  0
 10 11  2  0
M  RGP  2  12   1  13   2
V   12 *
V   13 *
M  END
>  <m_name>  (156)
O-(3-methylbutyl)-L-serine

>  <symbol>  (156)
Ser(isoamyl)

>  <m_abbr>  (156)
Ser(isoamyl)

>  <m_type>  (156)
aa

>  <m_subtype>  (156)
non-natural

>  <m_RgroupIdx>  (156)
11,12,None,None

>  <m_Rgroups>  (156)
H,OH,None,None

>  <m_attachmentPointIdx>  (156)
8,9,None,None

>  <natAnalog>  (156)
S

$$$$

     RDKit          2D

  9  8  0  0  0  0  0  0  0  0999 V2000
    6.4952    0.7500    0.0000 C   0  0  0  0  0  0  0  0  0  0  0  0
    5.1962   -0.0000    0.0000 O   0  0  0  0  0  0  0  0  0  0  0  0
    3.8971    0.7500    0.0000 C   0  0  0  0  0  0  0  0  0  0  0  0
    2.5981   -0.0000    0.0000 C   0  0  0  0  0  0  0  0  0  0  0  0
    1.2990    0.7500    0.0000 N   0  0  0  0  0  0  0  0  0  0  0  0
    2.5981   -1.5000    0.0000 C   0  0  0  0  0  0  0  0  0  0  0  0
    1.2990   -2.2500    0.0000 O   0  0  0  0  0  0  0  0  0  0  0  0
    0.0000    0.0000    0.0000 R#  0  0  0  0  0  0  0  0  0  0  0  0
    3.8971   -2.2500    0.0000 R#  0  0  0  0  0  0  0  0  0  0  0  0
  1  2  1  0
  2  3  1  0
  4  3  1  1
  4  5  1  0
  5  8  1  0
  4  6  1  0
  6  9  1  0
  6  7  2  0
M  RGP  2   8   1   9   2
V    8 *
V    9 *
M  END
>  <m_name>  (157)
O-methyl-L-serine

>  <symbol>  (157)
Ser(Me)

>  <m_abbr>  (157)
Ser(Me)

>  <m_type>  (157)
aa

>  <m_subtype>  (157)
non-natural

>  <m_RgroupIdx>  (157)
7,8,None,None

>  <m_Rgroups>  (157)
H,OH,None,None

>  <m_attachmentPointIdx>  (157)
4,5,None,None

>  <natAnalog>  (157)
S

$$$$

     RDKit          2D

  9  8  0  0  0  0  0  0  0  0999 V2000
    6.4952    0.7500    0.0000 C   0  0  0  0  0  0  0  0  0  0  0  0
    5.1962   -0.0000    0.0000 O   0  0  0  0  0  0  0  0  0  0  0  0
    3.8971    0.7500    0.0000 C   0  0  0  0  0  0  0  0  0  0  0  0
    2.5981   -0.0000    0.0000 C   0  0  0  0  0  0  0  0  0  0  0  0
    1.2990    0.7500    0.0000 N   0  0  0  0  0  0  0  0  0  0  0  0
    2.5981   -1.5000    0.0000 C   0  0  0  0  0  0  0  0  0  0  0  0
    1.2990   -2.2500    0.0000 O   0  0  0  0  0  0  0  0  0  0  0  0
    0.0000    0.0000    0.0000 R#  0  0  0  0  0  0  0  0  0  0  0  0
    3.8971   -2.2500    0.0000 R#  0  0  0  0  0  0  0  0  0  0  0  0
  1  2  1  0
  2  3  1  0
  4  3  1  6
  4  5  1  0
  5  8  1  0
  4  6  1  0
  6  9  1  0
  6  7  2  0
M  RGP  2   8   1   9   2
V    8 *
V    9 *
M  END
>  <m_name>  (158)
O-methyl-D-serine

>  <symbol>  (158)
dSer(Me)

>  <m_abbr>  (158)
dSer(Me)

>  <m_type>  (158)
aa

>  <m_subtype>  (158)
non-natural

>  <m_RgroupIdx>  (158)
7,8,None,None

>  <m_Rgroups>  (158)
H,OH,None,None

>  <m_attachmentPointIdx>  (158)
4,5,None,None

>  <natAnalog>  (158)
S

$$$$

     RDKit          2D

 15 15  0  0  0  0  0  0  0  0999 V2000
    6.0000    0.0000    0.0000 N   0  0  0  0  0  0  0  0  0  0  0  0
    5.2500   -1.2990    0.0000 C   0  0  0  0  0  0  0  0  0  0  0  0
    3.7500   -1.2990    0.0000 C   0  0  0  0  0  0  0  0  0  0  0  0
    3.0000    0.0000    0.0000 O   0  0  0  0  0  0  0  0  0  0  0  0
    1.5000    0.0000    0.0000 C   0  0  0  0  0  0  0  0  0  0  0  0
    0.7500   -1.2990    0.0000 C   0  0  0  0  0  0  0  0  0  0  0  0
   -0.7500   -1.2990    0.0000 C   0  0  0  0  0  0  0  0  0  0  0  0
   -1.5000    0.0000    0.0000 C   0  0  0  0  0  0  0  0  0  0  0  0
   -0.7500    1.2990    0.0000 C   0  0  0  0  0  0  0  0  0  0  0  0
    0.7500    1.2990    0.0000 C   0  0  0  0  0  0  0  0  0  0  0  0
    1.5000    2.5981    0.0000 Cl  0  0  0  0  0  0  0  0  0  0  0  0
    6.0000   -2.5981    0.0000 C   0  0  0  0  0  0  0  0  0  0  0  0
    5.2500   -3.8971    0.0000 O   0  0  0  0  0  0  0  0  0  0  0  0
    7.5000    0.0000    0.0000 R#  0  0  0  0  0  0  0  0  0  0  0  0
    7.5000   -2.5981    0.0000 R#  0  0  0  0  0  0  0  0  0  0  0  0
 14  1  1  0
  1  2  1  0
  2  3  1  6
  3  4  1  0
  4  5  1  0
  5  6  2  0
  6  7  1  0
  7  8  2  0
  8  9  1  0
  9 10  2  0
 10 11  1  0
  2 12  1  0
 12 15  1  0
 12 13  2  0
 10  5  1  0
M  RGP  2  14   1  15   2
V   14 *
V   15 *
M  END
>  <m_name>  (159)
O-(2-chlorophenyl)-L-serine

>  <symbol>  (159)
Ser(Ph(2-Cl))

>  <m_abbr>  (159)
Ser(Ph(2-Cl))

>  <m_type>  (159)
aa

>  <m_subtype>  (159)
non-natural

>  <m_RgroupIdx>  (159)
13,14,None,None

>  <m_Rgroups>  (159)
H,OH,None,None

>  <m_attachmentPointIdx>  (159)
0,11,None,None

>  <natAnalog>  (159)
S

$$$$

     RDKit          2D

 15 15  0  0  0  0  0  0  0  0999 V2000
    6.0000    0.0000    0.0000 N   0  0  0  0  0  0  0  0  0  0  0  0
    5.2500   -1.2990    0.0000 C   0  0  0  0  0  0  0  0  0  0  0  0
    3.7500   -1.2990    0.0000 C   0  0  0  0  0  0  0  0  0  0  0  0
    3.0000    0.0000    0.0000 O   0  0  0  0  0  0  0  0  0  0  0  0
    1.5000    0.0000    0.0000 C   0  0  0  0  0  0  0  0  0  0  0  0
    0.7500   -1.2990    0.0000 C   0  0  0  0  0  0  0  0  0  0  0  0
   -0.7500   -1.2990    0.0000 C   0  0  0  0  0  0  0  0  0  0  0  0
   -1.5000    0.0000    0.0000 C   0  0  0  0  0  0  0  0  0  0  0  0
   -0.7500    1.2990    0.0000 C   0  0  0  0  0  0  0  0  0  0  0  0
   -1.5000    2.5981    0.0000 Cl  0  0  0  0  0  0  0  0  0  0  0  0
    0.7500    1.2990    0.0000 C   0  0  0  0  0  0  0  0  0  0  0  0
    6.0000   -2.5981    0.0000 C   0  0  0  0  0  0  0  0  0  0  0  0
    5.2500   -3.8971    0.0000 O   0  0  0  0  0  0  0  0  0  0  0  0
    7.5000    0.0000    0.0000 R#  0  0  0  0  0  0  0  0  0  0  0  0
    7.5000   -2.5981    0.0000 R#  0  0  0  0  0  0  0  0  0  0  0  0
 14  1  1  0
  1  2  1  0
  2  3  1  6
  3  4  1  0
  4  5  1  0
  5  6  2  0
  6  7  1  0
  7  8  2  0
  8  9  1  0
  9 10  1  0
  9 11  2  0
  2 12  1  0
 12 15  1  0
 12 13  2  0
 11  5  1  0
M  RGP  2  14   1  15   2
V   14 *
V   15 *
M  END
>  <m_name>  (160)
O-(3-chlorophenyl)-L-serine

>  <symbol>  (160)
Ser(Ph(3-Cl))

>  <m_abbr>  (160)
Ser(Ph(3-Cl))

>  <m_type>  (160)
aa

>  <m_subtype>  (160)
non-natural

>  <m_RgroupIdx>  (160)
13,14,None,None

>  <m_Rgroups>  (160)
H,OH,None,None

>  <m_attachmentPointIdx>  (160)
0,11,None,None

>  <natAnalog>  (160)
S

$$$$

     RDKit          2D

 11 10  0  0  0  0  0  0  0  0999 V2000
    9.0933    0.7500    0.0000 C   0  0  0  0  0  0  0  0  0  0  0  0
    7.7942   -0.0000    0.0000 C   0  0  0  0  0  0  0  0  0  0  0  0
    6.4952    0.7500    0.0000 C   0  0  0  0  0  0  0  0  0  0  0  0
    5.1962   -0.0000    0.0000 O   0  0  0  0  0  0  0  0  0  0  0  0
    3.8971    0.7500    0.0000 C   0  0  0  0  0  0  0  0  0  0  0  0
    2.5981   -0.0000    0.0000 C   0  0  0  0  0  0  0  0  0  0  0  0
    1.2990    0.7500    0.0000 N   0  0  0  0  0  0  0  0  0  0  0  0
    2.5981   -1.5000    0.0000 C   0  0  0  0  0  0  0  0  0  0  0  0
    1.2990   -2.2500    0.0000 O   0  0  0  0  0  0  0  0  0  0  0  0
    0.0000    0.0000    0.0000 R#  0  0  0  0  0  0  0  0  0  0  0  0
    3.8971   -2.2500    0.0000 R#  0  0  0  0  0  0  0  0  0  0  0  0
  1  2  1  0
  2  3  1  0
  3  4  1  0
  4  5  1  0
  6  5  1  1
  6  7  1  0
  7 10  1  0
  6  8  1  0
  8 11  1  0
  8  9  2  0
M  RGP  2  10   1  11   2
V   10 *
V   11 *
M  END
>  <m_name>  (161)
O-propyl-L-serine

>  <symbol>  (161)
Ser(Pr)

>  <m_abbr>  (161)
Ser(Pr)

>  <m_type>  (161)
aa

>  <m_subtype>  (161)
non-natural

>  <m_RgroupIdx>  (161)
9,10,None,None

>  <m_Rgroups>  (161)
H,OH,None,None

>  <m_attachmentPointIdx>  (161)
6,7,None,None

>  <natAnalog>  (161)
S

$$$$

     RDKit          2D

 12 11  0  0  0  0  0  0  0  0999 V2000
    7.2452   -0.5490    0.0000 C   0  0  0  0  0  0  0  0  0  0  0  0
    6.4952    0.7500    0.0000 C   0  0  0  0  0  0  0  0  0  0  0  0
    5.7452    2.0490    0.0000 C   0  0  0  0  0  0  0  0  0  0  0  0
    7.7942    1.5000    0.0000 C   0  0  0  0  0  0  0  0  0  0  0  0
    5.1962   -0.0000    0.0000 O   0  0  0  0  0  0  0  0  0  0  0  0
    3.8971    0.7500    0.0000 C   0  0  0  0  0  0  0  0  0  0  0  0
    2.5981   -0.0000    0.0000 C   0  0  0  0  0  0  0  0  0  0  0  0
    1.2990    0.7500    0.0000 N   0  0  0  0  0  0  0  0  0  0  0  0
    2.5981   -1.5000    0.0000 C   0  0  0  0  0  0  0  0  0  0  0  0
    1.2990   -2.2500    0.0000 O   0  0  0  0  0  0  0  0  0  0  0  0
    0.0000    0.0000    0.0000 R#  0  0  0  0  0  0  0  0  0  0  0  0
    3.8971   -2.2500    0.0000 R#  0  0  0  0  0  0  0  0  0  0  0  0
  1  2  1  0
  2  3  1  0
  2  4  1  0
  2  5  1  0
  5  6  1  0
  7  6  1  1
  7  8  1  0
  8 11  1  0
  7  9  1  0
  9 12  1  0
  9 10  2  0
M  RGP  2  11   1  12   2
V   11 *
V   12 *
M  END
>  <m_name>  (162)
O-tert-butyl-L-serine

>  <symbol>  (162)
Ser(tBu)

>  <m_abbr>  (162)
Ser(tBu)

>  <m_type>  (162)
aa

>  <m_subtype>  (162)
non-natural

>  <m_RgroupIdx>  (162)
10,11,None,None

>  <m_Rgroups>  (162)
H,OH,None,None

>  <m_attachmentPointIdx>  (162)
7,8,None,None

>  <natAnalog>  (162)
S

$$$$

     RDKit          2D

 14 13  0  0  0  0  0  0  0  0999 V2000
    5.1962    9.0000    0.0000 C   0  0  0  0  0  0  0  0  0  0  0  0
    5.1962    7.5000    0.0000 C   0  0  0  0  0  0  0  0  0  0  0  0
    6.4952    6.7500    0.0000 C   0  0  0  0  0  0  0  0  0  0  0  0
    3.8971    6.7500    0.0000 C   0  0  0  0  0  0  0  0  0  0  0  0
    3.8971    5.2500    0.0000 C   0  0  0  0  0  0  0  0  0  0  0  0
    2.5981    4.5000    0.0000 O   0  0  0  0  0  0  0  0  0  0  0  0
    2.5981    3.0000    0.0000 C   0  0  0  0  0  0  0  0  0  0  0  0
    1.2990    2.2500    0.0000 C   0  0  0  0  0  0  0  0  0  0  0  0
    0.0000    3.0000    0.0000 C   0  0  0  0  0  0  0  0  0  0  0  0
   -1.2990    2.2500    0.0000 O   0  0  0  0  0  0  0  0  0  0  0  0
    1.2990    0.7500    0.0000 N   0  0  0  0  0  0  0  0  0  0  0  0
    2.5981   -0.0000    0.0000 C   0  0  0  0  0  0  0  0  0  0  0  0
    0.0000    0.0000    0.0000 R#  0  0  0  0  0  0  0  0  0  0  0  0
    0.0000    4.5000    0.0000 R#  0  0  0  0  0  0  0  0  0  0  0  0
  1  2  1  0
  2  3  1  0
  2  4  1  0
  4  5  1  0
  5  6  1  0
  6  7  1  0
  8  7  1  6
  8  9  1  0
  9 14  1  0
  9 10  2  0
  8 11  1  0
 11 12  1  0
 11 13  1  0
M  RGP  2  13   1  14   2
V   13 *
V   14 *
M  END
>  <m_name>  (163)
N-methyl-O-(3-methylbutyl)-L-serine

>  <symbol>  (163)
Me_Ser(isoamyl)

>  <m_abbr>  (163)
Me_Ser(isoamyl)

>  <m_type>  (163)
aa

>  <m_subtype>  (163)
non-natural

>  <m_RgroupIdx>  (163)
12,13,None,None

>  <m_Rgroups>  (163)
H,OH,None,None

>  <m_attachmentPointIdx>  (163)
10,8,None,None

>  <natAnalog>  (163)
S

$$$$

     RDKit          2D

 12 11  0  0  0  0  0  0  0  0999 V2000
    5.1962    7.5000    0.0000 C   0  0  0  0  0  0  0  0  0  0  0  0
    3.8971    6.7500    0.0000 C   0  0  0  0  0  0  0  0  0  0  0  0
    3.8971    5.2500    0.0000 C   0  0  0  0  0  0  0  0  0  0  0  0
    2.5981    4.5000    0.0000 O   0  0  0  0  0  0  0  0  0  0  0  0
    2.5981    3.0000    0.0000 C   0  0  0  0  0  0  0  0  0  0  0  0
    1.2990    2.2500    0.0000 C   0  0  0  0  0  0  0  0  0  0  0  0
    0.0000    3.0000    0.0000 C   0  0  0  0  0  0  0  0  0  0  0  0
   -1.2990    2.2500    0.0000 O   0  0  0  0  0  0  0  0  0  0  0  0
    1.2990    0.7500    0.0000 N   0  0  0  0  0  0  0  0  0  0  0  0
    2.5981   -0.0000    0.0000 C   0  0  0  0  0  0  0  0  0  0  0  0
    0.0000    0.0000    0.0000 R#  0  0  0  0  0  0  0  0  0  0  0  0
    0.0000    4.5000    0.0000 R#  0  0  0  0  0  0  0  0  0  0  0  0
  1  2  1  0
  2  3  1  0
  3  4  1  0
  4  5  1  0
  6  5  1  6
  6  7  1  0
  7 12  1  0
  7  8  2  0
  6  9  1  0
  9 10  1  0
  9 11  1  0
M  RGP  2  11   1  12   2
V   11 *
V   12 *
M  END
>  <m_name>  (164)
N-methyl-O-propyl-L-serine

>  <symbol>  (164)
Me_Ser(Pr)

>  <m_abbr>  (164)
Me_Ser(Pr)

>  <m_type>  (164)
aa

>  <m_subtype>  (164)
non-natural

>  <m_RgroupIdx>  (164)
10,11,None,None

>  <m_Rgroups>  (164)
H,OH,None,None

>  <m_attachmentPointIdx>  (164)
8,6,None,None

>  <natAnalog>  (164)
S

$$$$

     RDKit          2D

  7  6  0  0  0  0  0  0  0  0999 V2000
    2.5981   -0.0000    0.0000 C   0  0  0  0  0  0  0  0  0  0  0  0
    1.2990    0.7500    0.0000 N   0  0  0  0  0  0  0  0  0  0  0  0
    1.2990    2.2500    0.0000 C   0  0  0  0  0  0  0  0  0  0  0  0
    2.5981    3.0000    0.0000 C   0  0  0  0  0  0  0  0  0  0  0  0
    3.8971    2.2500    0.0000 O   0  0  0  0  0  0  0  0  0  0  0  0
    0.0000    0.0000    0.0000 R#  0  0  0  0  0  0  0  0  0  0  0  0
    2.5981    4.5000    0.0000 R#  0  0  0  0  0  0  0  0  0  0  0  0
  1  2  1  0
  2  6  1  0
  2  3  1  0
  3  4  1  0
  4  7  1  0
  4  5  2  0
M  RGP  2   6   1   7   2
V    6 *
V    7 *
M  END
>  <m_name>  (165)
Sarcosine

>  <symbol>  (165)
Sar

>  <m_abbr>  (165)
Sar

>  <m_type>  (165)
aa

>  <m_subtype>  (165)
non-natural

>  <m_RgroupIdx>  (165)
5,6,None,None

>  <m_Rgroups>  (165)
H,OH,None,None

>  <m_attachmentPointIdx>  (165)
1,3,None,None

>  <natAnalog>  (165)
G

$$$$

     RDKit          2D

 13 12  0  0  0  0  0  0  0  0999 V2000
    6.4952    0.7500    0.0000 C   0  0  0  0  0  0  0  0  0  0  0  0
    5.1962   -0.0000    0.0000 C   0  0  0  0  0  0  0  0  0  0  0  0
    5.1962   -1.5000    0.0000 C   0  0  0  0  0  0  0  0  0  0  0  0
    3.8971    0.7500    0.0000 C   0  0  0  0  0  0  0  0  0  0  0  0
    2.5981   -0.0000    0.0000 C   0  0  0  0  0  0  0  0  0  0  0  0
    1.2990    0.7500    0.0000 N   0  0  0  0  0  0  0  0  0  0  0  0
    2.5981   -1.5000    0.0000 C   0  0  0  0  0  0  0  0  0  0  0  0
    1.2990   -2.2500    0.0000 O   0  0  0  0  0  0  0  0  0  0  0  0
    3.8971   -2.2500    0.0000 C   0  0  0  0  0  0  0  0  0  0  0  0
    3.8971   -3.7500    0.0000 C   0  0  0  0  0  0  0  0  0  0  0  0
    2.5981   -4.5000    0.0000 O   0  0  0  0  0  0  0  0  0  0  0  0
    0.0000    0.0000    0.0000 R#  0  0  0  0  0  0  0  0  0  0  0  0
    5.1962   -4.5000    0.0000 R#  0  0  0  0  0  0  0  0  0  0  0  0
  1  2  1  0
  2  3  1  0
  2  4  1  0
  5  4  1  1
  5  6  1  0
  6 12  1  0
  5  7  1  0
  7  8  1  6
  7  9  1  0
  9 10  1  0
 10 13  1  0
 10 11  2  0
M  RGP  2  12   1  13   2
V   12 *
V   13 *
M  END
>  <m_name>  (166)
Statine

>  <symbol>  (166)
Sta

>  <m_abbr>  (166)
Sta

>  <m_type>  (166)
aa

>  <m_subtype>  (166)
non-natural

>  <m_RgroupIdx>  (166)
11,12,None,None

>  <m_Rgroups>  (166)
H,OH,None,None

>  <m_attachmentPointIdx>  (166)
5,9,None,None

>  <natAnalog>  (166)
X

$$$$

     RDKit          2D

 13 12  0  0  0  0  0  0  0  0999 V2000
    6.4952    0.7500    0.0000 C   0  0  0  0  0  0  0  0  0  0  0  0
    5.1962   -0.0000    0.0000 C   0  0  0  0  0  0  0  0  0  0  0  0
    5.1962   -1.5000    0.0000 C   0  0  0  0  0  0  0  0  0  0  0  0
    3.8971    0.7500    0.0000 C   0  0  0  0  0  0  0  0  0  0  0  0
    2.5981   -0.0000    0.0000 C   0  0  0  0  0  0  0  0  0  0  0  0
    1.2990    0.7500    0.0000 N   0  0  0  0  0  0  0  0  0  0  0  0
    2.5981   -1.5000    0.0000 C   0  0  0  0  0  0  0  0  0  0  0  0
    1.2990   -2.2500    0.0000 O   0  0  0  0  0  0  0  0  0  0  0  0
    3.8971   -2.2500    0.0000 C   0  0  0  0  0  0  0  0  0  0  0  0
    3.8971   -3.7500    0.0000 C   0  0  0  0  0  0  0  0  0  0  0  0
    2.5981   -4.5000    0.0000 O   0  0  0  0  0  0  0  0  0  0  0  0
    0.0000    0.0000    0.0000 R#  0  0  0  0  0  0  0  0  0  0  0  0
    5.1962   -4.5000    0.0000 R#  0  0  0  0  0  0  0  0  0  0  0  0
  1  2  1  0
  2  3  1  0
  2  4  1  0
  5  4  1  6
  5  6  1  0
  6 12  1  0
  5  7  1  0
  7  8  1  1
  7  9  1  0
  9 10  1  0
 10 13  1  0
 10 11  2  0
M  RGP  2  12   1  13   2
V   12 *
V   13 *
M  END
>  <symbol>  (167)
Sta(3R,4R)

>  <m_abbr>  (167)
Sta(3R,4R)

>  <m_type>  (167)
aa

>  <m_subtype>  (167)
non-natural

>  <m_RgroupIdx>  (167)
11,12,None,None

>  <m_Rgroups>  (167)
H,OH,None,None

>  <m_attachmentPointIdx>  (167)
5,9,None,None

>  <natAnalog>  (167)
X

$$$$

     RDKit          2D

 10  9  0  0  0  0  0  0  0  0999 V2000
    5.1962   -0.0000    0.0000 C   0  0  0  0  0  0  0  0  0  0  0  0
    3.8971    0.7500    0.0000 C   0  0  0  0  0  0  0  0  0  0  0  0
    3.8971    2.2500    0.0000 O   0  0  0  0  0  0  0  0  0  0  0  0
    2.5981   -0.0000    0.0000 C   0  0  0  0  0  0  0  0  0  0  0  0
    1.2990    0.7500    0.0000 N   0  0  0  0  0  0  0  0  0  0  0  0
    2.5981   -1.5000    0.0000 C   0  0  0  0  0  0  0  0  0  0  0  0
    1.2990   -2.2500    0.0000 O   0  0  0  0  0  0  0  0  0  0  0  0
    0.0000    0.0000    0.0000 R#  0  0  0  0  0  0  0  0  0  0  0  0
    3.8971   -2.2500    0.0000 R#  0  0  0  0  0  0  0  0  0  0  0  0
    5.1962    3.0000    0.0000 R#  0  0  0  0  0  0  0  0  0  0  0  0
  2  1  1  6
  2  3  1  0
  3 10  1  0
  2  4  1  0
  4  5  1  1
  5  8  1  0
  4  6  1  0
  6  9  1  0
  6  7  2  0
M  RGP  3   8   1   9   2  10   3
V    8 *
V    9 *
V   10 *
M  END
>  <m_name>  (168)
Threonine

>  <symbol>  (168)
T

>  <m_abbr>  (168)
T

>  <m_type>  (168)
aa

>  <m_subtype>  (168)
non-natural

>  <m_RgroupIdx>  (168)
7,8,9,None

>  <m_Rgroups>  (168)
H,OH,H,None

>  <m_attachmentPointIdx>  (168)
4,5,2,None

>  <natAnalog>  (168)
T

$$$$

     RDKit          2D

  9  8  0  0  0  0  0  0  0  0999 V2000
    5.1962   -0.0000    0.0000 C   0  0  0  0  0  0  0  0  0  0  0  0
    3.8971    0.7500    0.0000 C   0  0  0  0  0  0  0  0  0  0  0  0
    3.8971    2.2500    0.0000 O   0  0  0  0  0  0  0  0  0  0  0  0
    2.5981   -0.0000    0.0000 C   0  0  0  0  0  0  0  0  0  0  0  0
    1.2990    0.7500    0.0000 N   0  0  0  0  0  0  0  0  0  0  0  0
    2.5981   -1.5000    0.0000 C   0  0  0  0  0  0  0  0  0  0  0  0
    1.2990   -2.2500    0.0000 O   0  0  0  0  0  0  0  0  0  0  0  0
    0.0000    0.0000    0.0000 R#  0  0  0  0  0  0  0  0  0  0  0  0
    3.8971   -2.2500    0.0000 R#  0  0  0  0  0  0  0  0  0  0  0  0
  2  1  1  1
  2  3  1  0
  2  4  1  0
  4  5  1  6
  5  8  1  0
  4  6  1  0
  6  9  1  0
  6  7  2  0
M  RGP  2   8   1   9   2
V    8 *
V    9 *
M  END
>  <m_name>  (169)
D-threonine

>  <symbol>  (169)
dT

>  <m_abbr>  (169)
dT

>  <m_type>  (169)
aa

>  <m_subtype>  (169)
non-natural

>  <m_RgroupIdx>  (169)
7,8,None,None

>  <m_Rgroups>  (169)
H,OH,None,None

>  <m_attachmentPointIdx>  (169)
4,5,None,None

>  <natAnalog>  (169)
T

$$$$

     RDKit          2D

 10  9  0  0  0  0  0  0  0  0999 V2000
    2.5981    4.5000    0.0000 C   0  0  0  0  0  0  0  0  0  0  0  0
    2.5981    3.0000    0.0000 C   0  0  0  0  0  0  0  0  0  0  0  0
    3.8971    2.2500    0.0000 O   0  0  0  0  0  0  0  0  0  0  0  0
    1.2990    2.2500    0.0000 C   0  0  0  0  0  0  0  0  0  0  0  0
    1.2990    0.7500    0.0000 N   0  0  0  0  0  0  0  0  0  0  0  0
    2.5981   -0.0000    0.0000 C   0  0  0  0  0  0  0  0  0  0  0  0
    0.0000    3.0000    0.0000 C   0  0  0  0  0  0  0  0  0  0  0  0
   -1.2990    2.2500    0.0000 O   0  0  0  0  0  0  0  0  0  0  0  0
    0.0000    0.0000    0.0000 R#  0  0  0  0  0  0  0  0  0  0  0  0
    0.0000    4.5000    0.0000 R#  0  0  0  0  0  0  0  0  0  0  0  0
  2  1  1  1
  2  3  1  0
  2  4  1  0
  4  5  1  6
  5  6  1  0
  5  9  1  0
  4  7  1  0
  7 10  1  0
  7  8  2  0
M  RGP  2   9   1  10   2
V    9 *
V   10 *
M  END
>  <m_name>  (170)
N-methyl-L-threonine

>  <symbol>  (170)
meT

>  <m_abbr>  (170)
meT

>  <m_type>  (170)
aa

>  <m_subtype>  (170)
non-natural

>  <m_RgroupIdx>  (170)
8,9,None,None

>  <m_Rgroups>  (170)
H,OH,None,None

>  <m_attachmentPointIdx>  (170)
4,6,None,None

>  <natAnalog>  (170)
T

$$$$

     RDKit          2D

 16 15  0  0  0  0  0  0  0  0999 V2000
   -0.7500   -1.2990    0.0000 C   0  0  0  0  0  0  0  0  0  0  0  0
    0.0000    0.0000    0.0000 C   0  0  0  0  0  0  0  0  0  0  0  0
    1.5000    0.0000    0.0000 C   0  0  0  0  0  0  0  0  0  0  0  0
    2.2500    1.2990    0.0000 C   0  0  0  0  0  0  0  0  0  0  0  0
    3.7500    1.2990    0.0000 C   0  0  0  0  0  0  0  0  0  0  0  0
    4.5000    2.5981    0.0000 C   0  0  0  0  0  0  0  0  0  0  0  0
    4.5000   -0.0000    0.0000 C   0  0  0  0  0  0  0  0  0  0  0  0
    3.7500   -1.2990    0.0000 O   0  0  0  0  0  0  0  0  0  0  0  0
    6.0000   -0.0000    0.0000 C   0  0  0  0  0  0  0  0  0  0  0  0
    6.7500   -1.2990    0.0000 C   0  0  0  0  0  0  0  0  0  0  0  0
    6.0000   -2.5981    0.0000 O   0  0  0  0  0  0  0  0  0  0  0  0
    6.7500    1.2990    0.0000 N   0  0  0  0  0  0  0  0  0  0  0  0
    6.0000    2.5981    0.0000 C   0  0  0  0  0  0  0  0  0  0  0  0
    8.2500    1.2990    0.0000 R#  0  0  0  0  0  0  0  0  0  0  0  0
    8.2500   -1.2990    0.0000 R#  0  0  0  0  0  0  0  0  0  0  0  0
    4.5000   -2.5981    0.0000 R#  0  0  0  0  0  0  0  0  0  0  0  0
  1  2  1  0
  2  3  2  0
  3  4  1  0
  4  5  1  0
  5  6  1  1
  5  7  1  0
  7  8  1  6
  8 16  1  0
  7  9  1  0
  9 10  1  0
 10 15  1  0
 10 11  2  0
  9 12  1  6
 12 13  1  0
 12 14  1  0
M  RGP  3  14   1  15   2  16   3
V   14 *
V   15 *
V   16 *
M  END
>  <m_name>  (171)
N-methyl-(4R)-4-[(E)-but-2-enyl]-4-methyl-L-threonine

>  <symbol>  (171)
Me_Bmt(E)

>  <m_abbr>  (171)
Me_Bmt(E)

>  <m_type>  (171)
aa

>  <m_subtype>  (171)
non-natural

>  <m_RgroupIdx>  (171)
13,14,15,None

>  <m_Rgroups>  (171)
H,OH,H,None

>  <m_attachmentPointIdx>  (171)
11,9,7,None

>  <natAnalog>  (171)
T

$$$$

     RDKit          2D

 10  9  0  0  0  0  0  0  0  0999 V2000
    4.6471   -0.5490    0.0000 C   0  0  0  0  0  0  0  0  0  0  0  0
    3.8971    0.7500    0.0000 C   0  0  0  0  0  0  0  0  0  0  0  0
    3.1471    2.0490    0.0000 C   0  0  0  0  0  0  0  0  0  0  0  0
    5.1962    1.5000    0.0000 C   0  0  0  0  0  0  0  0  0  0  0  0
    2.5981   -0.0000    0.0000 C   0  0  0  0  0  0  0  0  0  0  0  0
    1.2990    0.7500    0.0000 N   0  0  0  0  0  0  0  0  0  0  0  0
    2.5981   -1.5000    0.0000 C   0  0  0  0  0  0  0  0  0  0  0  0
    1.2990   -2.2500    0.0000 O   0  0  0  0  0  0  0  0  0  0  0  0
    0.0000    0.0000    0.0000 R#  0  0  0  0  0  0  0  0  0  0  0  0
    3.8971   -2.2500    0.0000 R#  0  0  0  0  0  0  0  0  0  0  0  0
  1  2  1  0
  2  3  1  0
  2  4  1  0
  2  5  1  0
  5  6  1  1
  6  9  1  0
  5  7  1  0
  7 10  1  0
  7  8  2  0
M  RGP  2   9   1  10   2
V    9 *
V   10 *
M  END
>  <m_name>  (172)
2-tert-butyl-L-glycine

>  <symbol>  (172)
Tle

>  <m_abbr>  (172)
Tle

>  <m_type>  (172)
aa

>  <m_subtype>  (172)
non-natural

>  <m_RgroupIdx>  (172)
8,9,None,None

>  <m_Rgroups>  (172)
H,OH,None,None

>  <m_attachmentPointIdx>  (172)
5,6,None,None

>  <natAnalog>  (172)
G

$$$$

     RDKit          2D

 12 12  0  0  0  0  0  0  0  0999 V2000
    2.7760   -2.5981    0.0000 N   0  0  0  0  0  0  0  0  0  0  0  0
    3.5260   -1.2990    0.0000 C   0  0  0  0  0  0  0  0  0  0  0  0
    2.7760    0.0000    0.0000 C   0  0  0  0  0  0  0  0  0  0  0  0
    1.2760    0.0000    0.0000 C   0  0  0  0  0  0  0  0  0  0  0  0
    0.3943    1.2135    0.0000 C   0  0  0  0  0  0  0  0  0  0  0  0
   -1.0323    0.7500    0.0000 S   0  0  0  0  0  0  0  0  0  0  0  0
   -1.0323   -0.7500    0.0000 C   0  0  0  0  0  0  0  0  0  0  0  0
    0.3943   -1.2135    0.0000 N   0  0  0  0  0  0  0  0  0  0  0  0
    5.0260   -1.2990    0.0000 C   0  0  0  0  0  0  0  0  0  0  0  0
    5.7760    0.0000    0.0000 O   0  0  0  0  0  0  0  0  0  0  0  0
    3.5260   -3.8971    0.0000 R#  0  0  0  0  0  0  0  0  0  0  0  0
    5.7760   -2.5981    0.0000 R#  0  0  0  0  0  0  0  0  0  0  0  0
 11  1  1  0
  1  2  1  0
  2  3  1  1
  3  4  1  0
  4  5  2  0
  5  6  1  0
  6  7  1  0
  7  8  2  0
  2  9  1  0
  9 12  1  0
  9 10  2  0
  8  4  1  0
M  RGP  2  11   1  12   2
V   11 *
V   12 *
M  END
>  <m_name>  (173)
Thiazolylalanine

>  <symbol>  (173)
Tza

>  <m_abbr>  (173)
Tza

>  <m_type>  (173)
aa

>  <m_subtype>  (173)
non-natural

>  <m_RgroupIdx>  (173)
10,11,None,None

>  <m_Rgroups>  (173)
H,OH,None,None

>  <m_attachmentPointIdx>  (173)
0,8,None,None

>  <natAnalog>  (173)
A

$$$$

     RDKit          2D

 13 13  0  0  0  0  0  0  0  0999 V2000
    1.2760   -2.5981    0.0000 C   0  0  0  0  0  0  0  0  0  0  0  0
    2.7760   -2.5981    0.0000 N   0  0  0  0  0  0  0  0  0  0  0  0
    3.5260   -1.2990    0.0000 C   0  0  0  0  0  0  0  0  0  0  0  0
    2.7760    0.0000    0.0000 C   0  0  0  0  0  0  0  0  0  0  0  0
    1.2760    0.0000    0.0000 C   0  0  0  0  0  0  0  0  0  0  0  0
    0.3943    1.2135    0.0000 C   0  0  0  0  0  0  0  0  0  0  0  0
   -1.0323    0.7500    0.0000 S   0  0  0  0  0  0  0  0  0  0  0  0
   -1.0323   -0.7500    0.0000 C   0  0  0  0  0  0  0  0  0  0  0  0
    0.3943   -1.2135    0.0000 N   0  0  0  0  0  0  0  0  0  0  0  0
    5.0260   -1.2990    0.0000 C   0  0  0  0  0  0  0  0  0  0  0  0
    5.7760    0.0000    0.0000 O   0  0  0  0  0  0  0  0  0  0  0  0
    3.5260   -3.8971    0.0000 R#  0  0  0  0  0  0  0  0  0  0  0  0
    5.7760   -2.5981    0.0000 R#  0  0  0  0  0  0  0  0  0  0  0  0
  1  2  1  0
  2 12  1  0
  2  3  1  0
  3  4  1  1
  4  5  1  0
  5  6  2  0
  6  7  1  0
  7  8  1  0
  8  9  2  0
  3 10  1  0
 10 13  1  0
 10 11  2  0
  9  5  1  0
M  RGP  2  12   1  13   2
V   12 *
V   13 *
M  END
>  <m_name>  (174)
N-methyl-L-thiazolylalanine

>  <symbol>  (174)
Me_Tza

>  <m_abbr>  (174)
Me_Tza

>  <m_type>  (174)
aa

>  <m_subtype>  (174)
non-natural

>  <m_RgroupIdx>  (174)
11,12,None,None

>  <m_Rgroups>  (174)
H,OH,None,None

>  <m_attachmentPointIdx>  (174)
1,9,None,None

>  <natAnalog>  (174)
A

$$$$

     RDKit          2D

  9  8  0  0  0  0  0  0  0  0999 V2000
    5.1962   -0.0000    0.0000 C   0  0  0  0  0  0  0  0  0  0  0  0
    3.8971    0.7500    0.0000 C   0  0  0  0  0  0  0  0  0  0  0  0
    3.8971    2.2500    0.0000 C   0  0  0  0  0  0  0  0  0  0  0  0
    2.5981   -0.0000    0.0000 C   0  0  0  0  0  0  0  0  0  0  0  0
    1.2990    0.7500    0.0000 N   0  0  0  0  0  0  0  0  0  0  0  0
    2.5981   -1.5000    0.0000 C   0  0  0  0  0  0  0  0  0  0  0  0
    1.2990   -2.2500    0.0000 O   0  0  0  0  0  0  0  0  0  0  0  0
    0.0000    0.0000    0.0000 R#  0  0  0  0  0  0  0  0  0  0  0  0
    3.8971   -2.2500    0.0000 R#  0  0  0  0  0  0  0  0  0  0  0  0
  1  2  1  0
  2  3  1  0
  2  4  1  0
  4  5  1  1
  5  8  1  0
  4  6  1  0
  6  9  1  0
  6  7  2  0
M  RGP  2   8   1   9   2
V    8 *
V    9 *
M  END
>  <m_name>  (175)
Valine

>  <symbol>  (175)
V

>  <m_abbr>  (175)
V

>  <m_type>  (175)
aa

>  <m_subtype>  (175)
non-natural

>  <m_RgroupIdx>  (175)
7,8,None,None

>  <m_Rgroups>  (175)
H,OH,None,None

>  <m_attachmentPointIdx>  (175)
4,5,None,None

>  <natAnalog>  (175)
V

$$$$

     RDKit          2D

  9  8  0  0  0  0  0  0  0  0999 V2000
    5.1962   -0.0000    0.0000 C   0  0  0  0  0  0  0  0  0  0  0  0
    3.8971    0.7500    0.0000 C   0  0  0  0  0  0  0  0  0  0  0  0
    3.8971    2.2500    0.0000 C   0  0  0  0  0  0  0  0  0  0  0  0
    2.5981   -0.0000    0.0000 C   0  0  0  0  0  0  0  0  0  0  0  0
    1.2990    0.7500    0.0000 N   0  0  0  0  0  0  0  0  0  0  0  0
    2.5981   -1.5000    0.0000 C   0  0  0  0  0  0  0  0  0  0  0  0
    1.2990   -2.2500    0.0000 O   0  0  0  0  0  0  0  0  0  0  0  0
    0.0000    0.0000    0.0000 R#  0  0  0  0  0  0  0  0  0  0  0  0
    3.8971   -2.2500    0.0000 R#  0  0  0  0  0  0  0  0  0  0  0  0
  1  2  1  0
  2  3  1  0
  2  4  1  0
  4  5  1  6
  5  8  1  0
  4  6  1  0
  6  9  1  0
  6  7  2  0
M  RGP  2   8   1   9   2
V    8 *
V    9 *
M  END
>  <m_name>  (176)
D-valine

>  <symbol>  (176)
dV

>  <m_abbr>  (176)
dV

>  <m_type>  (176)
aa

>  <m_subtype>  (176)
non-natural

>  <m_RgroupIdx>  (176)
7,8,None,None

>  <m_Rgroups>  (176)
H,OH,None,None

>  <m_attachmentPointIdx>  (176)
4,5,None,None

>  <natAnalog>  (176)
V

$$$$

     RDKit          2D

 10  9  0  0  0  0  0  0  0  0999 V2000
    2.5981    4.5000    0.0000 C   0  0  0  0  0  0  0  0  0  0  0  0
    2.5981    3.0000    0.0000 C   0  0  0  0  0  0  0  0  0  0  0  0
    3.8971    2.2500    0.0000 C   0  0  0  0  0  0  0  0  0  0  0  0
    1.2990    2.2500    0.0000 C   0  0  0  0  0  0  0  0  0  0  0  0
    1.2990    0.7500    0.0000 N   0  0  0  0  0  0  0  0  0  0  0  0
    2.5981   -0.0000    0.0000 C   0  0  0  0  0  0  0  0  0  0  0  0
    0.0000    3.0000    0.0000 C   0  0  0  0  0  0  0  0  0  0  0  0
   -1.2990    2.2500    0.0000 O   0  0  0  0  0  0  0  0  0  0  0  0
    0.0000    0.0000    0.0000 R#  0  0  0  0  0  0  0  0  0  0  0  0
    0.0000    4.5000    0.0000 R#  0  0  0  0  0  0  0  0  0  0  0  0
  1  2  1  0
  2  3  1  0
  4  2  1  6
  4  5  1  0
  5  6  1  0
  5  9  1  0
  4  7  1  0
  7 10  1  0
  7  8  2  0
M  RGP  2   9   1  10   2
V    9 *
V   10 *
M  END
>  <m_name>  (177)
N-methyl-L-valine

>  <symbol>  (177)
meV

>  <m_abbr>  (177)
meV

>  <m_type>  (177)
aa

>  <m_subtype>  (177)
non-natural

>  <m_RgroupIdx>  (177)
8,9,None,None

>  <m_Rgroups>  (177)
H,OH,None,None

>  <m_attachmentPointIdx>  (177)
4,6,None,None

>  <natAnalog>  (177)
V

$$$$

     RDKit          2D

 10  9  0  0  0  0  0  0  0  0999 V2000
    2.5981    4.5000    0.0000 C   0  0  0  0  0  0  0  0  0  0  0  0
    2.5981    3.0000    0.0000 C   0  0  0  0  0  0  0  0  0  0  0  0
    3.8971    2.2500    0.0000 C   0  0  0  0  0  0  0  0  0  0  0  0
    1.2990    2.2500    0.0000 C   0  0  0  0  0  0  0  0  0  0  0  0
    1.2990    0.7500    0.0000 N   0  0  0  0  0  0  0  0  0  0  0  0
    2.5981   -0.0000    0.0000 C   0  0  0  0  0  0  0  0  0  0  0  0
    0.0000    3.0000    0.0000 C   0  0  0  0  0  0  0  0  0  0  0  0
   -1.2990    2.2500    0.0000 O   0  0  0  0  0  0  0  0  0  0  0  0
    0.0000    0.0000    0.0000 R#  0  0  0  0  0  0  0  0  0  0  0  0
    0.0000    4.5000    0.0000 R#  0  0  0  0  0  0  0  0  0  0  0  0
  1  2  1  0
  2  3  1  0
  4  2  1  1
  4  5  1  0
  5  6  1  0
  5  9  1  0
  4  7  1  0
  7 10  1  0
  7  8  2  0
M  RGP  2   9   1  10   2
V    9 *
V   10 *
M  END
>  <m_name>  (178)
N-methyl-D-valine

>  <symbol>  (178)
Me_dV

>  <m_abbr>  (178)
Me_dV

>  <m_type>  (178)
aa

>  <m_subtype>  (178)
non-natural

>  <m_RgroupIdx>  (178)
8,9,None,None

>  <m_Rgroups>  (178)
H,OH,None,None

>  <m_attachmentPointIdx>  (178)
4,6,None,None

>  <natAnalog>  (178)
V

$$$$

     RDKit          2D

  9  8  0  0  0  0  0  0  0  0999 V2000
    5.1962   -0.0000    0.0000 C   0  0  0  0  0  0  0  0  0  0  0  0
    3.8971    0.7500    0.0000 C   0  0  0  0  0  0  0  0  0  0  0  0
    3.8971    2.2500    0.0000 C   0  0  0  0  0  0  0  0  0  0  0  0
    2.5981   -0.0000    0.0000 C   0  0  0  0  0  0  0  0  0  0  0  0
    1.2990    0.7500    0.0000 O   0  0  0  0  0  0  0  0  0  0  0  0
    2.5981   -1.5000    0.0000 C   0  0  0  0  0  0  0  0  0  0  0  0
    1.2990   -2.2500    0.0000 O   0  0  0  0  0  0  0  0  0  0  0  0
    0.0000    0.0000    0.0000 R#  0  0  0  0  0  0  0  0  0  0  0  0
    3.8971   -2.2500    0.0000 R#  0  0  0  0  0  0  0  0  0  0  0  0
  1  2  1  0
  2  3  1  0
  2  4  1  0
  4  5  1  1
  5  8  1  0
  4  6  1  0
  6  9  1  0
  6  7  2  0
M  RGP  2   8   1   9   2
V    8 *
V    9 *
M  END
>  <symbol>  (179)
(N->O)Val

>  <m_abbr>  (179)
(N->O)Val

>  <m_type>  (179)
aa

>  <m_subtype>  (179)
non-natural

>  <m_RgroupIdx>  (179)
7,8,None,None

>  <m_Rgroups>  (179)
H,OH,None,None

>  <m_attachmentPointIdx>  (179)
4,5,None,None

>  <natAnalog>  (179)
V

$$$$

     RDKit          2D

  9  8  0  0  0  0  0  0  0  0999 V2000
    5.1962   -0.0000    0.0000 C   0  0  0  0  0  0  0  0  0  0  0  0
    3.8971    0.7500    0.0000 C   0  0  0  0  0  0  0  0  0  0  0  0
    3.8971    2.2500    0.0000 C   0  0  0  0  0  0  0  0  0  0  0  0
    2.5981   -0.0000    0.0000 C   0  0  0  0  0  0  0  0  0  0  0  0
    1.2990    0.7500    0.0000 O   0  0  0  0  0  0  0  0  0  0  0  0
    2.5981   -1.5000    0.0000 C   0  0  0  0  0  0  0  0  0  0  0  0
    1.2990   -2.2500    0.0000 O   0  0  0  0  0  0  0  0  0  0  0  0
    0.0000    0.0000    0.0000 R#  0  0  0  0  0  0  0  0  0  0  0  0
    3.8971   -2.2500    0.0000 R#  0  0  0  0  0  0  0  0  0  0  0  0
  1  2  1  0
  2  3  1  0
  2  4  1  0
  4  5  1  6
  5  8  1  0
  4  6  1  0
  6  9  1  0
  6  7  2  0
M  RGP  2   8   1   9   2
V    8 *
V    9 *
M  END
>  <symbol>  (180)
d(N->O)Val

>  <m_abbr>  (180)
d(N->O)Val

>  <m_type>  (180)
aa

>  <m_subtype>  (180)
non-natural

>  <m_RgroupIdx>  (180)
7,8,None,None

>  <m_Rgroups>  (180)
H,OH,None,None

>  <m_attachmentPointIdx>  (180)
4,5,None,None

>  <natAnalog>  (180)
V

$$$$

     RDKit          2D

 10  9  0  0  0  0  0  0  0  0999 V2000
    3.1471    2.0490    0.0000 C   0  0  0  0  0  0  0  0  0  0  0  0
    3.8971    0.7500    0.0000 C   0  0  0  0  0  0  0  0  0  0  0  0
    4.6471   -0.5490    0.0000 C   0  0  0  0  0  0  0  0  0  0  0  0
    5.1962    1.5000    0.0000 O   0  0  0  0  0  0  0  0  0  0  0  0
    2.5981   -0.0000    0.0000 C   0  0  0  0  0  0  0  0  0  0  0  0
    1.2990    0.7500    0.0000 O   0  0  0  0  0  0  0  0  0  0  0  0
    2.5981   -1.5000    0.0000 C   0  0  0  0  0  0  0  0  0  0  0  0
    1.2990   -2.2500    0.0000 O   0  0  0  0  0  0  0  0  0  0  0  0
    0.0000    0.0000    0.0000 R#  0  0  0  0  0  0  0  0  0  0  0  0
    3.8971   -2.2500    0.0000 R#  0  0  0  0  0  0  0  0  0  0  0  0
  1  2  1  0
  2  3  1  0
  2  4  1  0
  2  5  1  0
  5  6  1  1
  6  9  1  0
  5  7  1  0
  7 10  1  0
  7  8  2  0
M  RGP  2   9   1  10   2
V    9 *
V   10 *
M  END
>  <symbol>  (181)
(N->O)Val(3-OH)

>  <m_abbr>  (181)
(N->O)Val(3-OH)

>  <m_type>  (181)
aa

>  <m_subtype>  (181)
non-natural

>  <m_RgroupIdx>  (181)
8,9,None,None

>  <m_Rgroups>  (181)
H,OH,None,None

>  <m_attachmentPointIdx>  (181)
5,6,None,None

>  <natAnalog>  (181)
V

$$$$

     RDKit          2D

 16 17  0  0  0  0  0  0  0  0999 V2000
   -1.8373   -5.6601    0.0000 N   0  0  0  0  0  0  0  0  0  0  0  0
   -2.9520   -4.6564    0.0000 C   0  0  0  0  0  0  0  0  0  0  0  0
   -2.6401   -3.1891    0.0000 C   0  0  0  0  0  0  0  0  0  0  0  0
   -1.2135   -2.7256    0.0000 C   0  0  0  0  0  0  0  0  0  0  0  0
   -0.0000   -3.6073    0.0000 C   0  0  0  0  0  0  0  0  0  0  0  0
    1.2135   -2.7256    0.0000 N   0  0  0  0  0  0  0  0  0  0  0  0
    0.7500   -1.2990    0.0000 C   0  0  0  0  0  0  0  0  0  0  0  0
    1.5000    0.0000    0.0000 C   0  0  0  0  0  0  0  0  0  0  0  0
    0.7500    1.2990    0.0000 C   0  0  0  0  0  0  0  0  0  0  0  0
   -0.7500    1.2990    0.0000 C   0  0  0  0  0  0  0  0  0  0  0  0
   -1.5000    0.0000    0.0000 C   0  0  0  0  0  0  0  0  0  0  0  0
   -0.7500   -1.2990    0.0000 C   0  0  0  0  0  0  0  0  0  0  0  0
   -4.3786   -5.1199    0.0000 C   0  0  0  0  0  0  0  0  0  0  0  0
   -5.4933   -4.1162    0.0000 O   0  0  0  0  0  0  0  0  0  0  0  0
   -2.1491   -7.1273    0.0000 R#  0  0  0  0  0  0  0  0  0  0  0  0
   -4.6904   -6.5871    0.0000 R#  0  0  0  0  0  0  0  0  0  0  0  0
 15  1  1  0
  1  2  1  0
  2  3  1  6
  3  4  1  0
  4  5  2  0
  5  6  1  0
  6  7  1  0
  7  8  2  0
  8  9  1  0
  9 10  2  0
 10 11  1  0
 11 12  2  0
  2 13  1  0
 13 16  1  0
 13 14  2  0
 12  4  1  0
 12  7  1  0
M  RGP  2  15   1  16   2
V   15 *
V   16 *
M  END
>  <m_name>  (182)
Tryptophan

>  <symbol>  (182)
W

>  <m_abbr>  (182)
W

>  <m_type>  (182)
aa

>  <m_subtype>  (182)
non-natural

>  <m_RgroupIdx>  (182)
14,15,None,None

>  <m_Rgroups>  (182)
H,OH,None,None

>  <m_attachmentPointIdx>  (182)
0,12,None,None

>  <natAnalog>  (182)
W

$$$$

     RDKit          2D

 17 18  0  0  0  0  0  0  0  0999 V2000
   -0.4107   -5.1965    0.0000 C   0  0  0  0  0  0  0  0  0  0  0  0
   -1.8373   -5.6601    0.0000 N   0  0  0  0  0  0  0  0  0  0  0  0
   -2.9520   -4.6564    0.0000 C   0  0  0  0  0  0  0  0  0  0  0  0
   -2.6401   -3.1891    0.0000 C   0  0  0  0  0  0  0  0  0  0  0  0
   -1.2135   -2.7256    0.0000 C   0  0  0  0  0  0  0  0  0  0  0  0
   -0.0000   -3.6073    0.0000 C   0  0  0  0  0  0  0  0  0  0  0  0
    1.2135   -2.7256    0.0000 N   0  0  0  0  0  0  0  0  0  0  0  0
    0.7500   -1.2990    0.0000 C   0  0  0  0  0  0  0  0  0  0  0  0
    1.5000    0.0000    0.0000 C   0  0  0  0  0  0  0  0  0  0  0  0
    0.7500    1.2990    0.0000 C   0  0  0  0  0  0  0  0  0  0  0  0
   -0.7500    1.2990    0.0000 C   0  0  0  0  0  0  0  0  0  0  0  0
   -1.5000    0.0000    0.0000 C   0  0  0  0  0  0  0  0  0  0  0  0
   -0.7500   -1.2990    0.0000 C   0  0  0  0  0  0  0  0  0  0  0  0
   -4.3786   -5.1199    0.0000 C   0  0  0  0  0  0  0  0  0  0  0  0
   -5.4933   -4.1162    0.0000 O   0  0  0  0  0  0  0  0  0  0  0  0
   -2.1491   -7.1273    0.0000 R#  0  0  0  0  0  0  0  0  0  0  0  0
   -4.6904   -6.5871    0.0000 R#  0  0  0  0  0  0  0  0  0  0  0  0
  1  2  1  0
  2 16  1  0
  2  3  1  0
  3  4  1  6
  4  5  1  0
  5  6  2  0
  6  7  1  0
  7  8  1  0
  8  9  2  0
  9 10  1  0
 10 11  2  0
 11 12  1  0
 12 13  2  0
  3 14  1  0
 14 17  1  0
 14 15  2  0
 13  5  1  0
 13  8  1  0
M  RGP  2  16   1  17   2
V   16 *
V   17 *
M  END
>  <m_name>  (183)
N-methyl-L-tryptophan

>  <symbol>  (183)
meW

>  <m_abbr>  (183)
meW

>  <m_type>  (183)
aa

>  <m_subtype>  (183)
non-natural

>  <m_RgroupIdx>  (183)
15,16,None,None

>  <m_Rgroups>  (183)
H,OH,None,None

>  <m_attachmentPointIdx>  (183)
1,13,None,None

>  <natAnalog>  (183)
W

$$$$

     RDKit          2D

 17 18  0  0  0  0  0  0  0  0999 V2000
   -0.4107   -5.1965    0.0000 C   0  0  0  0  0  0  0  0  0  0  0  0
   -1.8373   -5.6601    0.0000 N   0  0  0  0  0  0  0  0  0  0  0  0
   -2.9520   -4.6564    0.0000 C   0  0  0  0  0  0  0  0  0  0  0  0
   -2.6401   -3.1891    0.0000 C   0  0  0  0  0  0  0  0  0  0  0  0
   -1.2135   -2.7256    0.0000 C   0  0  0  0  0  0  0  0  0  0  0  0
   -0.0000   -3.6073    0.0000 C   0  0  0  0  0  0  0  0  0  0  0  0
    1.2135   -2.7256    0.0000 N   0  0  0  0  0  0  0  0  0  0  0  0
    0.7500   -1.2990    0.0000 C   0  0  0  0  0  0  0  0  0  0  0  0
    1.5000    0.0000    0.0000 C   0  0  0  0  0  0  0  0  0  0  0  0
    0.7500    1.2990    0.0000 C   0  0  0  0  0  0  0  0  0  0  0  0
   -0.7500    1.2990    0.0000 C   0  0  0  0  0  0  0  0  0  0  0  0
   -1.5000    0.0000    0.0000 C   0  0  0  0  0  0  0  0  0  0  0  0
   -0.7500   -1.2990    0.0000 C   0  0  0  0  0  0  0  0  0  0  0  0
   -4.3786   -5.1199    0.0000 C   0  0  0  0  0  0  0  0  0  0  0  0
   -5.4933   -4.1162    0.0000 O   0  0  0  0  0  0  0  0  0  0  0  0
   -2.1491   -7.1273    0.0000 R#  0  0  0  0  0  0  0  0  0  0  0  0
   -4.6904   -6.5871    0.0000 R#  0  0  0  0  0  0  0  0  0  0  0  0
  1  2  1  0
  2 16  1  0
  2  3  1  0
  3  4  1  1
  4  5  1  0
  5  6  2  0
  6  7  1  0
  7  8  1  0
  8  9  2  0
  9 10  1  0
 10 11  2  0
 11 12  1  0
 12 13  2  0
  3 14  1  0
 14 17  1  0
 14 15  2  0
 13  5  1  0
 13  8  1  0
M  RGP  2  16   1  17   2
V   16 *
V   17 *
M  END
>  <m_name>  (184)
N-methyl-D-tryptophan

>  <symbol>  (184)
Me_dW

>  <m_abbr>  (184)
Me_dW

>  <m_type>  (184)
aa

>  <m_subtype>  (184)
non-natural

>  <m_RgroupIdx>  (184)
15,16,None,None

>  <m_Rgroups>  (184)
H,OH,None,None

>  <m_attachmentPointIdx>  (184)
1,13,None,None

>  <natAnalog>  (184)
W

$$$$

     RDKit          2D

 17 18  0  0  0  0  0  0  0  0999 V2000
   -1.8373   -5.6601    0.0000 N   0  0  0  0  0  0  0  0  0  0  0  0
   -2.9520   -4.6564    0.0000 C   0  0  0  0  0  0  0  0  0  0  0  0
   -2.6401   -3.1891    0.0000 C   0  0  0  0  0  0  0  0  0  0  0  0
   -1.2135   -2.7256    0.0000 C   0  0  0  0  0  0  0  0  0  0  0  0
   -0.0000   -3.6073    0.0000 C   0  0  0  0  0  0  0  0  0  0  0  0
    1.2135   -2.7256    0.0000 N   0  0  0  0  0  0  0  0  0  0  0  0
    0.7500   -1.2990    0.0000 C   0  0  0  0  0  0  0  0  0  0  0  0
    1.5000    0.0000    0.0000 C   0  0  0  0  0  0  0  0  0  0  0  0
    0.7500    1.2990    0.0000 C   0  0  0  0  0  0  0  0  0  0  0  0
   -0.7500    1.2990    0.0000 C   0  0  0  0  0  0  0  0  0  0  0  0
   -1.5000    2.5981    0.0000 Br  0  0  0  0  0  0  0  0  0  0  0  0
   -1.5000    0.0000    0.0000 C   0  0  0  0  0  0  0  0  0  0  0  0
   -0.7500   -1.2990    0.0000 C   0  0  0  0  0  0  0  0  0  0  0  0
   -4.3786   -5.1199    0.0000 C   0  0  0  0  0  0  0  0  0  0  0  0
   -5.4933   -4.1162    0.0000 O   0  0  0  0  0  0  0  0  0  0  0  0
   -2.1491   -7.1273    0.0000 R#  0  0  0  0  0  0  0  0  0  0  0  0
   -4.6904   -6.5871    0.0000 R#  0  0  0  0  0  0  0  0  0  0  0  0
 16  1  1  0
  1  2  1  0
  2  3  1  6
  3  4  1  0
  4  5  2  0
  5  6  1  0
  6  7  1  0
  7  8  2  0
  8  9  1  0
  9 10  2  0
 10 11  1  0
 10 12  1  0
 12 13  2  0
  2 14  1  0
 14 17  1  0
 14 15  2  0
 13  4  1  0
 13  7  1  0
M  RGP  2  16   1  17   2
V   16 *
V   17 *
M  END
>  <m_name>  (185)
5-bromo-L-tryptophan

>  <symbol>  (185)
Trp(5-Br)

>  <m_abbr>  (185)
Trp(5-Br)

>  <m_type>  (185)
aa

>  <m_subtype>  (185)
non-natural

>  <m_RgroupIdx>  (185)
15,16,None,None

>  <m_Rgroups>  (185)
H,OH,None,None

>  <m_attachmentPointIdx>  (185)
0,13,None,None

>  <natAnalog>  (185)
W

$$$$

     RDKit          2D

 17 18  0  0  0  0  0  0  0  0999 V2000
   -1.8373   -5.6601    0.0000 N   0  0  0  0  0  0  0  0  0  0  0  0
   -2.9520   -4.6564    0.0000 C   0  0  0  0  0  0  0  0  0  0  0  0
   -2.6401   -3.1891    0.0000 C   0  0  0  0  0  0  0  0  0  0  0  0
   -1.2135   -2.7256    0.0000 C   0  0  0  0  0  0  0  0  0  0  0  0
   -0.0000   -3.6073    0.0000 C   0  0  0  0  0  0  0  0  0  0  0  0
    1.2135   -2.7256    0.0000 N   0  0  0  0  0  0  0  0  0  0  0  0
    0.7500   -1.2990    0.0000 C   0  0  0  0  0  0  0  0  0  0  0  0
    1.5000    0.0000    0.0000 C   0  0  0  0  0  0  0  0  0  0  0  0
    0.7500    1.2990    0.0000 C   0  0  0  0  0  0  0  0  0  0  0  0
    1.5000    2.5981    0.0000 Br  0  0  0  0  0  0  0  0  0  0  0  0
   -0.7500    1.2990    0.0000 C   0  0  0  0  0  0  0  0  0  0  0  0
   -1.5000    0.0000    0.0000 C   0  0  0  0  0  0  0  0  0  0  0  0
   -0.7500   -1.2990    0.0000 C   0  0  0  0  0  0  0  0  0  0  0  0
   -4.3786   -5.1199    0.0000 C   0  0  0  0  0  0  0  0  0  0  0  0
   -5.4933   -4.1162    0.0000 O   0  0  0  0  0  0  0  0  0  0  0  0
   -2.1491   -7.1273    0.0000 R#  0  0  0  0  0  0  0  0  0  0  0  0
   -4.6904   -6.5871    0.0000 R#  0  0  0  0  0  0  0  0  0  0  0  0
 16  1  1  0
  1  2  1  0
  2  3  1  6
  3  4  1  0
  4  5  2  0
  5  6  1  0
  6  7  1  0
  7  8  2  0
  8  9  1  0
  9 10  1  0
  9 11  2  0
 11 12  1  0
 12 13  2  0
  2 14  1  0
 14 17  1  0
 14 15  2  0
 13  4  1  0
 13  7  1  0
M  RGP  2  16   1  17   2
V   16 *
V   17 *
M  END
>  <m_name>  (186)
6-bromo-L-tryptophan

>  <symbol>  (186)
Trp(6-Br)

>  <m_abbr>  (186)
Trp(6-Br)

>  <m_type>  (186)
aa

>  <m_subtype>  (186)
non-natural

>  <m_RgroupIdx>  (186)
15,16,None,None

>  <m_Rgroups>  (186)
H,OH,None,None

>  <m_attachmentPointIdx>  (186)
0,13,None,None

>  <natAnalog>  (186)
W

$$$$

     RDKit          2D

 17 18  0  0  0  0  0  0  0  0999 V2000
   -1.8373   -5.6601    0.0000 N   0  0  0  0  0  0  0  0  0  0  0  0
   -2.9520   -4.6564    0.0000 C   0  0  0  0  0  0  0  0  0  0  0  0
   -2.6401   -3.1891    0.0000 C   0  0  0  0  0  0  0  0  0  0  0  0
   -1.2135   -2.7256    0.0000 C   0  0  0  0  0  0  0  0  0  0  0  0
   -0.0000   -3.6073    0.0000 C   0  0  0  0  0  0  0  0  0  0  0  0
    1.2135   -2.7256    0.0000 N   0  0  0  0  0  0  0  0  0  0  0  0
    0.7500   -1.2990    0.0000 C   0  0  0  0  0  0  0  0  0  0  0  0
    1.5000    0.0000    0.0000 C   0  0  0  0  0  0  0  0  0  0  0  0
    3.0000    0.0000    0.0000 Br  0  0  0  0  0  0  0  0  0  0  0  0
    0.7500    1.2990    0.0000 C   0  0  0  0  0  0  0  0  0  0  0  0
   -0.7500    1.2990    0.0000 C   0  0  0  0  0  0  0  0  0  0  0  0
   -1.5000    0.0000    0.0000 C   0  0  0  0  0  0  0  0  0  0  0  0
   -0.7500   -1.2990    0.0000 C   0  0  0  0  0  0  0  0  0  0  0  0
   -4.3786   -5.1199    0.0000 C   0  0  0  0  0  0  0  0  0  0  0  0
   -5.4933   -4.1162    0.0000 O   0  0  0  0  0  0  0  0  0  0  0  0
   -2.1491   -7.1273    0.0000 R#  0  0  0  0  0  0  0  0  0  0  0  0
   -4.6904   -6.5871    0.0000 R#  0  0  0  0  0  0  0  0  0  0  0  0
 16  1  1  0
  1  2  1  0
  2  3  1  6
  3  4  1  0
  4  5  2  0
  5  6  1  0
  6  7  1  0
  7  8  2  0
  8  9  1  0
  8 10  1  0
 10 11  2  0
 11 12  1  0
 12 13  2  0
  2 14  1  0
 14 17  1  0
 14 15  2  0
 13  4  1  0
 13  7  1  0
M  RGP  2  16   1  17   2
V   16 *
V   17 *
M  END
>  <m_name>  (187)
7-bromo-L-tryptophan

>  <symbol>  (187)
Trp(7-Br)

>  <m_abbr>  (187)
Trp(7-Br)

>  <m_type>  (187)
aa

>  <m_subtype>  (187)
non-natural

>  <m_RgroupIdx>  (187)
15,16,None,None

>  <m_Rgroups>  (187)
H,OH,None,None

>  <m_attachmentPointIdx>  (187)
0,13,None,None

>  <natAnalog>  (187)
W

$$$$

     RDKit          2D

 14 14  0  0  0  0  0  0  0  0999 V2000
    3.0000    0.0000    0.0000 O   0  0  0  0  0  0  0  0  0  0  0  0
    1.5000    0.0000    0.0000 C   0  0  0  0  0  0  0  0  0  0  0  0
    0.7500   -1.2990    0.0000 C   0  0  0  0  0  0  0  0  0  0  0  0
   -0.7500   -1.2990    0.0000 C   0  0  0  0  0  0  0  0  0  0  0  0
   -1.5000    0.0000    0.0000 C   0  0  0  0  0  0  0  0  0  0  0  0
   -3.0000    0.0000    0.0000 C   0  0  0  0  0  0  0  0  0  0  0  0
   -3.7500    1.2990    0.0000 C   0  0  0  0  0  0  0  0  0  0  0  0
   -3.0000    2.5981    0.0000 N   0  0  0  0  0  0  0  0  0  0  0  0
   -5.2500    1.2990    0.0000 C   0  0  0  0  0  0  0  0  0  0  0  0
   -6.0000   -0.0000    0.0000 O   0  0  0  0  0  0  0  0  0  0  0  0
   -0.7500    1.2990    0.0000 C   0  0  0  0  0  0  0  0  0  0  0  0
    0.7500    1.2990    0.0000 C   0  0  0  0  0  0  0  0  0  0  0  0
   -3.7500    3.8971    0.0000 R#  0  0  0  0  0  0  0  0  0  0  0  0
   -6.0000    2.5981    0.0000 R#  0  0  0  0  0  0  0  0  0  0  0  0
  1  2  1  0
  2  3  2  0
  3  4  1  0
  4  5  2  0
  5  6  1  0
  7  6  1  1
  7  8  1  0
  8 13  1  0
  7  9  1  0
  9 14  1  0
  9 10  2  0
  5 11  1  0
 11 12  2  0
 12  2  1  0
M  RGP  2  13   1  14   2
V   13 *
V   14 *
M  END
>  <m_name>  (188)
Tyrosine

>  <symbol>  (188)
Y

>  <m_abbr>  (188)
Y

>  <m_type>  (188)
aa

>  <m_subtype>  (188)
non-natural

>  <m_RgroupIdx>  (188)
12,13,None,None

>  <m_Rgroups>  (188)
H,OH,None,None

>  <m_attachmentPointIdx>  (188)
7,8,None,None

>  <natAnalog>  (188)
Y

$$$$

     RDKit          2D

 14 14  0  0  0  0  0  0  0  0999 V2000
    3.0000    0.0000    0.0000 O   0  0  0  0  0  0  0  0  0  0  0  0
    1.5000    0.0000    0.0000 C   0  0  0  0  0  0  0  0  0  0  0  0
    0.7500   -1.2990    0.0000 C   0  0  0  0  0  0  0  0  0  0  0  0
   -0.7500   -1.2990    0.0000 C   0  0  0  0  0  0  0  0  0  0  0  0
   -1.5000    0.0000    0.0000 C   0  0  0  0  0  0  0  0  0  0  0  0
   -3.0000    0.0000    0.0000 C   0  0  0  0  0  0  0  0  0  0  0  0
   -3.7500    1.2990    0.0000 C   0  0  0  0  0  0  0  0  0  0  0  0
   -3.0000    2.5981    0.0000 N   0  0  0  0  0  0  0  0  0  0  0  0
   -5.2500    1.2990    0.0000 C   0  0  0  0  0  0  0  0  0  0  0  0
   -6.0000   -0.0000    0.0000 O   0  0  0  0  0  0  0  0  0  0  0  0
   -0.7500    1.2990    0.0000 C   0  0  0  0  0  0  0  0  0  0  0  0
    0.7500    1.2990    0.0000 C   0  0  0  0  0  0  0  0  0  0  0  0
   -3.7500    3.8971    0.0000 R#  0  0  0  0  0  0  0  0  0  0  0  0
   -6.0000    2.5981    0.0000 R#  0  0  0  0  0  0  0  0  0  0  0  0
  1  2  1  0
  2  3  2  0
  3  4  1  0
  4  5  2  0
  5  6  1  0
  7  6  1  6
  7  8  1  0
  8 13  1  0
  7  9  1  0
  9 14  1  0
  9 10  2  0
  5 11  1  0
 11 12  2  0
 12  2  1  0
M  RGP  2  13   1  14   2
V   13 *
V   14 *
M  END
>  <m_name>  (189)
D-tyrosine

>  <symbol>  (189)
dY

>  <m_abbr>  (189)
dY

>  <m_type>  (189)
aa

>  <m_subtype>  (189)
non-natural

>  <m_RgroupIdx>  (189)
12,13,None,None

>  <m_Rgroups>  (189)
H,OH,None,None

>  <m_attachmentPointIdx>  (189)
7,8,None,None

>  <natAnalog>  (189)
Y

$$$$

     RDKit          2D

 15 15  0  0  0  0  0  0  0  0999 V2000
    1.5000   -2.5981    0.0000 C   0  0  0  0  0  0  0  0  0  0  0  0
    3.0000   -2.5981    0.0000 N   0  0  0  0  0  0  0  0  0  0  0  0
    3.7500   -1.2990    0.0000 C   0  0  0  0  0  0  0  0  0  0  0  0
    3.0000    0.0000    0.0000 C   0  0  0  0  0  0  0  0  0  0  0  0
    1.5000    0.0000    0.0000 C   0  0  0  0  0  0  0  0  0  0  0  0
    0.7500   -1.2990    0.0000 C   0  0  0  0  0  0  0  0  0  0  0  0
   -0.7500   -1.2990    0.0000 C   0  0  0  0  0  0  0  0  0  0  0  0
   -1.5000    0.0000    0.0000 C   0  0  0  0  0  0  0  0  0  0  0  0
   -3.0000    0.0000    0.0000 O   0  0  0  0  0  0  0  0  0  0  0  0
   -0.7500    1.2990    0.0000 C   0  0  0  0  0  0  0  0  0  0  0  0
    0.7500    1.2990    0.0000 C   0  0  0  0  0  0  0  0  0  0  0  0
    5.2500   -1.2990    0.0000 C   0  0  0  0  0  0  0  0  0  0  0  0
    6.0000    0.0000    0.0000 O   0  0  0  0  0  0  0  0  0  0  0  0
    3.7500   -3.8971    0.0000 R#  0  0  0  0  0  0  0  0  0  0  0  0
    6.0000   -2.5981    0.0000 R#  0  0  0  0  0  0  0  0  0  0  0  0
  1  2  1  0
  2 14  1  0
  2  3  1  0
  3  4  1  1
  4  5  1  0
  5  6  2  0
  6  7  1  0
  7  8  2  0
  8  9  1  0
  8 10  1  0
 10 11  2  0
  3 12  1  0
 12 15  1  0
 12 13  2  0
 11  5  1  0
M  RGP  2  14   1  15   2
V   14 *
V   15 *
M  END
>  <m_name>  (190)
N-methyl-L-tyrosine

>  <symbol>  (190)
meY

>  <m_abbr>  (190)
meY

>  <m_type>  (190)
aa

>  <m_subtype>  (190)
non-natural

>  <m_RgroupIdx>  (190)
13,14,None,None

>  <m_Rgroups>  (190)
H,OH,None,None

>  <m_attachmentPointIdx>  (190)
1,11,None,None

>  <natAnalog>  (190)
Y

$$$$

     RDKit          2D

 15 15  0  0  0  0  0  0  0  0999 V2000
    1.5000   -2.5981    0.0000 C   0  0  0  0  0  0  0  0  0  0  0  0
    3.0000   -2.5981    0.0000 N   0  0  0  0  0  0  0  0  0  0  0  0
    3.7500   -1.2990    0.0000 C   0  0  0  0  0  0  0  0  0  0  0  0
    3.0000    0.0000    0.0000 C   0  0  0  0  0  0  0  0  0  0  0  0
    1.5000    0.0000    0.0000 C   0  0  0  0  0  0  0  0  0  0  0  0
    0.7500   -1.2990    0.0000 C   0  0  0  0  0  0  0  0  0  0  0  0
   -0.7500   -1.2990    0.0000 C   0  0  0  0  0  0  0  0  0  0  0  0
   -1.5000    0.0000    0.0000 C   0  0  0  0  0  0  0  0  0  0  0  0
   -3.0000    0.0000    0.0000 O   0  0  0  0  0  0  0  0  0  0  0  0
   -0.7500    1.2990    0.0000 C   0  0  0  0  0  0  0  0  0  0  0  0
    0.7500    1.2990    0.0000 C   0  0  0  0  0  0  0  0  0  0  0  0
    5.2500   -1.2990    0.0000 C   0  0  0  0  0  0  0  0  0  0  0  0
    6.0000    0.0000    0.0000 O   0  0  0  0  0  0  0  0  0  0  0  0
    3.7500   -3.8971    0.0000 R#  0  0  0  0  0  0  0  0  0  0  0  0
    6.0000   -2.5981    0.0000 R#  0  0  0  0  0  0  0  0  0  0  0  0
  1  2  1  0
  2 14  1  0
  2  3  1  0
  3  4  1  6
  4  5  1  0
  5  6  2  0
  6  7  1  0
  7  8  2  0
  8  9  1  0
  8 10  1  0
 10 11  2  0
  3 12  1  0
 12 15  1  0
 12 13  2  0
 11  5  1  0
M  RGP  2  14   1  15   2
V   14 *
V   15 *
M  END
>  <m_name>  (191)
N-methyl-D-tyrosine

>  <symbol>  (191)
Me_dY

>  <m_abbr>  (191)
Me_dY

>  <m_type>  (191)
aa

>  <m_subtype>  (191)
non-natural

>  <m_RgroupIdx>  (191)
13,14,None,None

>  <m_Rgroups>  (191)
H,OH,None,None

>  <m_attachmentPointIdx>  (191)
1,11,None,None

>  <natAnalog>  (191)
Y

$$$$

     RDKit          2D

 15 15  0  0  0  0  0  0  0  0999 V2000
    3.0000   -2.5981    0.0000 N   0  0  0  0  0  0  0  0  0  0  0  0
    3.7500   -1.2990    0.0000 C   0  0  0  0  0  0  0  0  0  0  0  0
    3.0000    0.0000    0.0000 C   0  0  0  0  0  0  0  0  0  0  0  0
    1.5000    0.0000    0.0000 C   0  0  0  0  0  0  0  0  0  0  0  0
    0.7500   -1.2990    0.0000 C   0  0  0  0  0  0  0  0  0  0  0  0
   -0.7500   -1.2990    0.0000 C   0  0  0  0  0  0  0  0  0  0  0  0
   -1.5000    0.0000    0.0000 C   0  0  0  0  0  0  0  0  0  0  0  0
   -3.0000    0.0000    0.0000 O   0  0  0  0  0  0  0  0  0  0  0  0
   -0.7500    1.2990    0.0000 C   0  0  0  0  0  0  0  0  0  0  0  0
   -1.5000    2.5981    0.0000 F   0  0  0  0  0  0  0  0  0  0  0  0
    0.7500    1.2990    0.0000 C   0  0  0  0  0  0  0  0  0  0  0  0
    5.2500   -1.2990    0.0000 C   0  0  0  0  0  0  0  0  0  0  0  0
    6.0000    0.0000    0.0000 O   0  0  0  0  0  0  0  0  0  0  0  0
    3.7500   -3.8971    0.0000 R#  0  0  0  0  0  0  0  0  0  0  0  0
    6.0000   -2.5981    0.0000 R#  0  0  0  0  0  0  0  0  0  0  0  0
 14  1  1  0
  1  2  1  0
  2  3  1  1
  3  4  1  0
  4  5  2  0
  5  6  1  0
  6  7  2  0
  7  8  1  0
  7  9  1  0
  9 10  1  0
  9 11  2  0
  2 12  1  0
 12 15  1  0
 12 13  2  0
 11  4  1  0
M  RGP  2  14   1  15   2
V   14 *
V   15 *
M  END
>  <m_name>  (192)
3-fluoro-L-tyrosine

>  <symbol>  (192)
Tyr(3-F)

>  <m_abbr>  (192)
Tyr(3-F)

>  <m_type>  (192)
aa

>  <m_subtype>  (192)
non-natural

>  <m_RgroupIdx>  (192)
13,14,None,None

>  <m_Rgroups>  (192)
H,OH,None,None

>  <m_attachmentPointIdx>  (192)
0,11,None,None

>  <natAnalog>  (192)
Y

$$$$

     RDKit          2D

 17 17  0  0  0  0  0  0  0  0999 V2000
    3.0000   -2.5981    0.0000 N   0  0  0  0  0  0  0  0  0  0  0  0
    3.7500   -1.2990    0.0000 C   0  0  0  0  0  0  0  0  0  0  0  0
    3.0000    0.0000    0.0000 C   0  0  0  0  0  0  0  0  0  0  0  0
    1.5000    0.0000    0.0000 C   0  0  0  0  0  0  0  0  0  0  0  0
    0.7500   -1.2990    0.0000 C   0  0  0  0  0  0  0  0  0  0  0  0
   -0.7500   -1.2990    0.0000 C   0  0  0  0  0  0  0  0  0  0  0  0
   -1.5000    0.0000    0.0000 C   0  0  0  0  0  0  0  0  0  0  0  0
   -3.0000    0.0000    0.0000 O   0  0  0  0  0  0  0  0  0  0  0  0
   -3.7500    1.2990    0.0000 C   0  0  0  0  0  0  0  0  0  0  0  0
   -5.2500    1.2990    0.0000 F   0  0  0  0  0  0  0  0  0  0  0  0
   -3.0000    2.5981    0.0000 F   0  0  0  0  0  0  0  0  0  0  0  0
   -0.7500    1.2990    0.0000 C   0  0  0  0  0  0  0  0  0  0  0  0
    0.7500    1.2990    0.0000 C   0  0  0  0  0  0  0  0  0  0  0  0
    5.2500   -1.2990    0.0000 C   0  0  0  0  0  0  0  0  0  0  0  0
    6.0000    0.0000    0.0000 O   0  0  0  0  0  0  0  0  0  0  0  0
    3.7500   -3.8971    0.0000 R#  0  0  0  0  0  0  0  0  0  0  0  0
    6.0000   -2.5981    0.0000 R#  0  0  0  0  0  0  0  0  0  0  0  0
 16  1  1  0
  1  2  1  0
  2  3  1  1
  3  4  1  0
  4  5  2  0
  5  6  1  0
  6  7  2  0
  7  8  1  0
  8  9  1  0
  9 10  1  0
  9 11  1  0
  7 12  1  0
 12 13  2  0
  2 14  1  0
 14 17  1  0
 14 15  2  0
 13  4  1  0
M  RGP  2  16   1  17   2
V   16 *
V   17 *
M  END
>  <m_name>  (193)
O4-(difluoromethyl)-L-tyrosine

>  <symbol>  (193)
Tyr(CHF2)

>  <m_abbr>  (193)
Tyr(CHF2)

>  <m_type>  (193)
aa

>  <m_subtype>  (193)
non-natural

>  <m_RgroupIdx>  (193)
15,16,None,None

>  <m_Rgroups>  (193)
H,OH,None,None

>  <m_attachmentPointIdx>  (193)
0,13,None,None

>  <natAnalog>  (193)
Y

$$$$

     RDKit          2D

 15 15  0  0  0  0  0  0  0  0999 V2000
    3.7500   -1.2990    0.0000 C   0  0  0  0  0  0  0  0  0  0  0  0
    3.0000    0.0000    0.0000 O   0  0  0  0  0  0  0  0  0  0  0  0
    1.5000    0.0000    0.0000 C   0  0  0  0  0  0  0  0  0  0  0  0
    0.7500   -1.2990    0.0000 C   0  0  0  0  0  0  0  0  0  0  0  0
   -0.7500   -1.2990    0.0000 C   0  0  0  0  0  0  0  0  0  0  0  0
   -1.5000    0.0000    0.0000 C   0  0  0  0  0  0  0  0  0  0  0  0
   -3.0000    0.0000    0.0000 C   0  0  0  0  0  0  0  0  0  0  0  0
   -3.7500    1.2990    0.0000 C   0  0  0  0  0  0  0  0  0  0  0  0
   -3.0000    2.5981    0.0000 N   0  0  0  0  0  0  0  0  0  0  0  0
   -5.2500    1.2990    0.0000 C   0  0  0  0  0  0  0  0  0  0  0  0
   -6.0000   -0.0000    0.0000 O   0  0  0  0  0  0  0  0  0  0  0  0
   -0.7500    1.2990    0.0000 C   0  0  0  0  0  0  0  0  0  0  0  0
    0.7500    1.2990    0.0000 C   0  0  0  0  0  0  0  0  0  0  0  0
   -3.7500    3.8971    0.0000 R#  0  0  0  0  0  0  0  0  0  0  0  0
   -6.0000    2.5981    0.0000 R#  0  0  0  0  0  0  0  0  0  0  0  0
  1  2  1  0
  2  3  1  0
  3  4  2  0
  4  5  1  0
  5  6  2  0
  6  7  1  0
  8  7  1  1
  8  9  1  0
  9 14  1  0
  8 10  1  0
 10 15  1  0
 10 11  2  0
  6 12  1  0
 12 13  2  0
 13  3  1  0
M  RGP  2  14   1  15   2
V   14 *
V   15 *
M  END
>  <m_name>  (194)
O-methyl-L-tyrosine

>  <symbol>  (194)
Tyr(Me)

>  <m_abbr>  (194)
Tyr(Me)

>  <m_type>  (194)
aa

>  <m_subtype>  (194)
non-natural

>  <m_RgroupIdx>  (194)
13,14,None,None

>  <m_Rgroups>  (194)
H,OH,None,None

>  <m_attachmentPointIdx>  (194)
8,9,None,None

>  <natAnalog>  (194)
Y

$$$$

     RDKit          2D

 16 16  0  0  0  0  0  0  0  0999 V2000
    3.7500   -1.2990    0.0000 C   0  0  0  0  0  0  0  0  0  0  0  0
    3.0000    0.0000    0.0000 O   0  0  0  0  0  0  0  0  0  0  0  0
    1.5000    0.0000    0.0000 C   0  0  0  0  0  0  0  0  0  0  0  0
    0.7500   -1.2990    0.0000 C   0  0  0  0  0  0  0  0  0  0  0  0
   -0.7500   -1.2990    0.0000 C   0  0  0  0  0  0  0  0  0  0  0  0
   -1.5000    0.0000    0.0000 C   0  0  0  0  0  0  0  0  0  0  0  0
   -3.0000    0.0000    0.0000 C   0  0  0  0  0  0  0  0  0  0  0  0
   -3.7500    1.2990    0.0000 C   0  0  0  0  0  0  0  0  0  0  0  0
   -3.0000    2.5981    0.0000 N   0  0  0  0  0  0  0  0  0  0  0  0
   -1.5000    2.5981    0.0000 C   0  0  0  0  0  0  0  0  0  0  0  0
   -5.2500    1.2990    0.0000 C   0  0  0  0  0  0  0  0  0  0  0  0
   -6.0000   -0.0000    0.0000 O   0  0  0  0  0  0  0  0  0  0  0  0
   -0.7500    1.2990    0.0000 C   0  0  0  0  0  0  0  0  0  0  0  0
    0.7500    1.2990    0.0000 C   0  0  0  0  0  0  0  0  0  0  0  0
   -3.7500    3.8971    0.0000 R#  0  0  0  0  0  0  0  0  0  0  0  0
   -6.0000    2.5981    0.0000 R#  0  0  0  0  0  0  0  0  0  0  0  0
  1  2  1  0
  2  3  1  0
  3  4  2  0
  4  5  1  0
  5  6  2  0
  6  7  1  0
  8  7  1  1
  8  9  1  0
  9 10  1  0
  9 15  1  0
  8 11  1  0
 11 16  1  0
 11 12  2  0
  6 13  1  0
 13 14  2  0
 14  3  1  0
M  RGP  2  15   1  16   2
V   15 *
V   16 *
M  END
>  <m_name>  (195)
N-methyl-O4-methyl-L-tyrosine

>  <symbol>  (195)
Me_Tyr(Me)

>  <m_abbr>  (195)
Me_Tyr(Me)

>  <m_type>  (195)
aa

>  <m_subtype>  (195)
non-natural

>  <m_RgroupIdx>  (195)
14,15,None,None

>  <m_Rgroups>  (195)
H,OH,None,None

>  <m_attachmentPointIdx>  (195)
8,10,None,None

>  <natAnalog>  (195)
Y

$$$$

     RDKit          2D

 16 16  0  0  0  0  0  0  0  0999 V2000
    5.2500    1.2990    0.0000 C   0  0  0  0  0  0  0  0  0  0  0  0
    3.7500    1.2990    0.0000 O   0  0  0  0  0  0  0  0  0  0  0  0
    3.0000    0.0000    0.0000 C   0  0  0  0  0  0  0  0  0  0  0  0
    1.5000    0.0000    0.0000 C   0  0  0  0  0  0  0  0  0  0  0  0
    0.7500   -1.2990    0.0000 C   0  0  0  0  0  0  0  0  0  0  0  0
   -0.7500   -1.2990    0.0000 C   0  0  0  0  0  0  0  0  0  0  0  0
   -1.5000    0.0000    0.0000 C   0  0  0  0  0  0  0  0  0  0  0  0
   -3.0000    0.0000    0.0000 O   0  0  0  0  0  0  0  0  0  0  0  0
   -0.7500    1.2990    0.0000 C   0  0  0  0  0  0  0  0  0  0  0  0
    0.7500    1.2990    0.0000 C   0  0  0  0  0  0  0  0  0  0  0  0
    3.7500   -1.2990    0.0000 C   0  0  0  0  0  0  0  0  0  0  0  0
    3.0000   -2.5981    0.0000 N   0  0  0  0  0  0  0  0  0  0  0  0
    5.2500   -1.2990    0.0000 C   0  0  0  0  0  0  0  0  0  0  0  0
    6.0000    0.0000    0.0000 O   0  0  0  0  0  0  0  0  0  0  0  0
    3.7500   -3.8971    0.0000 R#  0  0  0  0  0  0  0  0  0  0  0  0
    6.0000   -2.5981    0.0000 R#  0  0  0  0  0  0  0  0  0  0  0  0
  1  2  1  0
  3  2  1  1
  3  4  1  0
  4  5  2  0
  5  6  1  0
  6  7  2  0
  7  8  1  0
  7  9  1  0
  9 10  2  0
  3 11  1  0
 11 12  1  6
 12 15  1  0
 11 13  1  0
 13 16  1  0
 13 14  2  0
 10  4  1  0
M  RGP  2  15   1  16   2
V   15 *
V   16 *
M  END
>  <m_name>  (196)
(betaR)-beta-methoxy-D-tyrosine

>  <symbol>  (196)
dTyr(bR-OMe)

>  <m_abbr>  (196)
dTyr(bR-OMe)

>  <m_type>  (196)
aa

>  <m_subtype>  (196)
non-natural

>  <m_RgroupIdx>  (196)
14,15,None,None

>  <m_Rgroups>  (196)
H,OH,None,None

>  <m_attachmentPointIdx>  (196)
11,12,None,None

>  <natAnalog>  (196)
Y

$$$$

     RDKit          2D

 14 14  0  0  0  0  0  0  0  0999 V2000
    3.0000   -2.5981    0.0000 O   0  0  0  0  0  0  0  0  0  0  0  0
    3.7500   -1.2990    0.0000 C   0  0  0  0  0  0  0  0  0  0  0  0
    3.0000    0.0000    0.0000 C   0  0  0  0  0  0  0  0  0  0  0  0
    1.5000    0.0000    0.0000 C   0  0  0  0  0  0  0  0  0  0  0  0
    0.7500   -1.2990    0.0000 C   0  0  0  0  0  0  0  0  0  0  0  0
   -0.7500   -1.2990    0.0000 C   0  0  0  0  0  0  0  0  0  0  0  0
   -1.5000    0.0000    0.0000 C   0  0  0  0  0  0  0  0  0  0  0  0
   -3.0000    0.0000    0.0000 O   0  0  0  0  0  0  0  0  0  0  0  0
   -0.7500    1.2990    0.0000 C   0  0  0  0  0  0  0  0  0  0  0  0
    0.7500    1.2990    0.0000 C   0  0  0  0  0  0  0  0  0  0  0  0
    5.2500   -1.2990    0.0000 C   0  0  0  0  0  0  0  0  0  0  0  0
    6.0000    0.0000    0.0000 O   0  0  0  0  0  0  0  0  0  0  0  0
    3.7500   -3.8971    0.0000 R#  0  0  0  0  0  0  0  0  0  0  0  0
    6.0000   -2.5981    0.0000 R#  0  0  0  0  0  0  0  0  0  0  0  0
 13  1  1  0
  1  2  1  0
  2  3  1  1
  3  4  1  0
  4  5  2  0
  5  6  1  0
  6  7  2  0
  7  8  1  0
  7  9  1  0
  9 10  2  0
  2 11  1  0
 11 14  1  0
 11 12  2  0
 10  4  1  0
M  RGP  2  13   1  14   2
V   13 *
V   14 *
M  END
>  <symbol>  (197)
(N->O)Tyr

>  <m_abbr>  (197)
(N->O)Tyr

>  <m_type>  (197)
aa

>  <m_subtype>  (197)
non-natural

>  <m_RgroupIdx>  (197)
12,13,None,None

>  <m_Rgroups>  (197)
H,OH,None,None

>  <m_attachmentPointIdx>  (197)
0,10,None,None

>  <natAnalog>  (197)
Y

$$$$

     RDKit          2D

 16 17  0  0  0  0  0  0  0  0999 V2000
   -2.6380    5.6918    0.0000 N   0  0  0  0  0  0  0  0  0  0  0  0
   -1.2114    6.1554    0.0000 C   0  0  0  0  0  0  0  0  0  0  0  0
   -0.8995    7.6226    0.0000 C   0  0  0  0  0  0  0  0  0  0  0  0
   -2.0143    8.6263    0.0000 O   0  0  0  0  0  0  0  0  0  0  0  0
   -2.9499    4.2246    0.0000 C   0  0  0  0  0  0  0  0  0  0  0  0
   -1.8351    3.2209    0.0000 C   0  0  0  0  0  0  0  0  0  0  0  0
   -0.4086    3.6844    0.0000 C   0  0  0  0  0  0  0  0  0  0  0  0
    0.7062    2.6807    0.0000 C   0  0  0  0  0  0  0  0  0  0  0  0
    0.3943    1.2135    0.0000 C   0  0  0  0  0  0  0  0  0  0  0  0
    1.2760    0.0000    0.0000 O   0  0  0  0  0  0  0  0  0  0  0  0
    0.3943   -1.2135    0.0000 C   0  0  0  0  0  0  0  0  0  0  0  0
   -1.0323   -0.7500    0.0000 O   0  0  0  0  0  0  0  0  0  0  0  0
   -1.0323    0.7500    0.0000 C   0  0  0  0  0  0  0  0  0  0  0  0
   -2.1470    1.7537    0.0000 C   0  0  0  0  0  0  0  0  0  0  0  0
   -3.7527    6.6955    0.0000 R#  0  0  0  0  0  0  0  0  0  0  0  0
    0.5271    8.0861    0.0000 R#  0  0  0  0  0  0  0  0  0  0  0  0
 15  1  1  0
  1  2  1  0
  2  3  1  0
  3 16  1  0
  3  4  2  0
  1  5  1  0
  5  6  1  0
  6  7  2  0
  7  8  1  0
  8  9  2  0
  9 10  1  0
 10 11  1  0
 11 12  1  0
 12 13  1  0
 13 14  2  0
 14  6  1  0
 13  9  1  0
M  RGP  2  15   1  16   2
V   15 *
V   16 *
M  END
>  <m_name>  (198)
N-piperonyl glycine

>  <symbol>  (198)
Mono1

>  <m_abbr>  (198)
Mono1

>  <m_type>  (198)
aa

>  <m_subtype>  (198)
non-natural

>  <m_RgroupIdx>  (198)
14,15,None,None

>  <m_Rgroups>  (198)
H,OH,None,None

>  <m_attachmentPointIdx>  (198)
0,2,None,None

>  <natAnalog>  (198)
G

$$$$

     RDKit          2D

 10 10  0  0  0  0  0  0  0  0999 V2000
    2.7760    0.0000    0.0000 C   0  0  0  0  0  0  0  0  0  0  0  0
    1.2760    0.0000    0.0000 C   0  0  0  0  0  0  0  0  0  0  0  0
    0.3943    1.2135    0.0000 C   0  0  0  0  0  0  0  0  0  0  0  0
   -1.0323    0.7500    0.0000 C   0  0  0  0  0  0  0  0  0  0  0  0
   -1.0323   -0.7500    0.0000 N   0  0  0  0  0  0  0  0  0  0  0  0
    0.3943   -1.2135    0.0000 C   0  0  0  0  0  0  0  0  0  0  0  0
    0.8578   -2.6401    0.0000 C   0  0  0  0  0  0  0  0  0  0  0  0
    2.3250   -2.9520    0.0000 O   0  0  0  0  0  0  0  0  0  0  0  0
   -2.2458   -1.6317    0.0000 R#  0  0  0  0  0  0  0  0  0  0  0  0
   -0.1459   -3.7548    0.0000 R#  0  0  0  0  0  0  0  0  0  0  0  0
  2  1  1  6
  2  3  1  0
  3  4  1  0
  4  5  1  0
  5  9  1  0
  5  6  1  0
  6  7  1  1
  7 10  1  0
  7  8  2  0
  6  2  1  0
M  RGP  2   9   1  10   2
V    9 *
V   10 *
M  END
>  <m_name>  (199)
3beta-methyl-L-proline

>  <symbol>  (199)
Mono2

>  <m_abbr>  (199)
Mono2

>  <m_type>  (199)
aa

>  <m_subtype>  (199)
non-natural

>  <m_RgroupIdx>  (199)
8,9,None,None

>  <m_Rgroups>  (199)
H,OH,None,None

>  <m_attachmentPointIdx>  (199)
4,6,None,None

>  <natAnalog>  (199)
P

$$$$

     RDKit          2D

 15 15  0  0  0  0  0  0  0  0999 V2000
    5.2500    1.2990    0.0000 C   0  0  0  0  0  0  0  0  0  0  0  0
    6.0000    0.0000    0.0000 N   0  0  0  0  0  0  0  0  0  0  0  0
    5.2500   -1.2990    0.0000 C   0  0  0  0  0  0  0  0  0  0  0  0
    3.7500   -1.2990    0.0000 C   0  0  0  0  0  0  0  0  0  0  0  0
    3.0000    0.0000    0.0000 C   0  0  0  0  0  0  0  0  0  0  0  0
    1.5000    0.0000    0.0000 N   0  0  0  0  0  0  0  0  0  0  0  0
    0.7500   -1.2990    0.0000 C   0  0  0  0  0  0  0  0  0  0  0  0
   -0.7500   -1.2990    0.0000 C   0  0  0  0  0  0  0  0  0  0  0  0
   -1.5000    0.0000    0.0000 C   0  0  0  0  0  0  0  0  0  0  0  0
   -0.7500    1.2990    0.0000 C   0  0  0  0  0  0  0  0  0  0  0  0
    0.7500    1.2990    0.0000 C   0  0  0  0  0  0  0  0  0  0  0  0
    6.0000   -2.5981    0.0000 C   0  0  0  0  0  0  0  0  0  0  0  0
    5.2500   -3.8971    0.0000 O   0  0  0  0  0  0  0  0  0  0  0  0
    7.5000    0.0000    0.0000 R#  0  0  0  0  0  0  0  0  0  0  0  0
    7.5000   -2.5981    0.0000 R#  0  0  0  0  0  0  0  0  0  0  0  0
  1  2  1  0
  2 14  1  0
  2  3  1  0
  3  4  1  6
  4  5  1  0
  5  6  1  0
  6  7  1  0
  7  8  1  0
  8  9  1  0
  9 10  1  0
 10 11  1  0
  3 12  1  0
 12 15  1  0
 12 13  2  0
 11  6  1  0
M  RGP  2  14   1  15   2
V   14 *
V   15 *
M  END
>  <symbol>  (200)
Mono3

>  <m_abbr>  (200)
Mono3

>  <m_type>  (200)
aa

>  <m_subtype>  (200)
non-natural

>  <m_RgroupIdx>  (200)
13,14,None,None

>  <m_Rgroups>  (200)
H,OH,None,None

>  <m_attachmentPointIdx>  (200)
1,11,None,None

>  <natAnalog>  (200)
X

$$$$

     RDKit          2D

 16 16  0  0  0  0  0  0  0  0999 V2000
    5.2500    1.2990    0.0000 C   0  0  0  0  0  0  0  0  0  0  0  0
    6.0000    0.0000    0.0000 N   0  0  0  0  0  0  0  0  0  0  0  0
    5.2500   -1.2990    0.0000 C   0  0  0  0  0  0  0  0  0  0  0  0
    3.7500   -1.2990    0.0000 C   0  0  0  0  0  0  0  0  0  0  0  0
    3.0000    0.0000    0.0000 C   0  0  0  0  0  0  0  0  0  0  0  0
    3.7500    1.2990    0.0000 O   0  0  0  0  0  0  0  0  0  0  0  0
    1.5000    0.0000    0.0000 N   0  0  0  0  0  0  0  0  0  0  0  0
    0.7500   -1.2990    0.0000 C   0  0  0  0  0  0  0  0  0  0  0  0
   -0.7500   -1.2990    0.0000 C   0  0  0  0  0  0  0  0  0  0  0  0
   -1.5000    0.0000    0.0000 C   0  0  0  0  0  0  0  0  0  0  0  0
   -0.7500    1.2990    0.0000 C   0  0  0  0  0  0  0  0  0  0  0  0
    0.7500    1.2990    0.0000 C   0  0  0  0  0  0  0  0  0  0  0  0
    6.0000   -2.5981    0.0000 C   0  0  0  0  0  0  0  0  0  0  0  0
    5.2500   -3.8971    0.0000 O   0  0  0  0  0  0  0  0  0  0  0  0
    7.5000    0.0000    0.0000 R#  0  0  0  0  0  0  0  0  0  0  0  0
    7.5000   -2.5981    0.0000 R#  0  0  0  0  0  0  0  0  0  0  0  0
  1  2  1  0
  2 15  1  0
  2  3  1  0
  3  4  1  6
  4  5  1  0
  5  6  2  0
  5  7  1  0
  7  8  1  0
  8  9  1  0
  9 10  1  0
 10 11  1  0
 11 12  1  0
  3 13  1  0
 13 16  1  0
 13 14  2  0
 12  7  1  0
M  RGP  2  15   1  16   2
V   15 *
V   16 *
M  END
>  <symbol>  (201)
Mono4

>  <m_abbr>  (201)
Mono4

>  <m_type>  (201)
aa

>  <m_subtype>  (201)
non-natural

>  <m_RgroupIdx>  (201)
14,15,None,None

>  <m_Rgroups>  (201)
H,OH,None,None

>  <m_attachmentPointIdx>  (201)
1,12,None,None

>  <natAnalog>  (201)
N

$$$$

     RDKit          2D

 16 16  0  0  0  0  0  0  0  0999 V2000
    5.2500    1.2990    0.0000 C   0  0  0  0  0  0  0  0  0  0  0  0
    6.0000    0.0000    0.0000 N   0  0  0  0  0  0  0  0  0  0  0  0
    5.2500   -1.2990    0.0000 C   0  0  0  0  0  0  0  0  0  0  0  0
    3.7500   -1.2990    0.0000 C   0  0  0  0  0  0  0  0  0  0  0  0
    3.0000    0.0000    0.0000 C   0  0  0  0  0  0  0  0  0  0  0  0
    3.7500    1.2990    0.0000 O   0  0  0  0  0  0  0  0  0  0  0  0
    1.5000    0.0000    0.0000 N   0  0  0  0  0  0  0  0  0  0  0  0
    0.7500   -1.2990    0.0000 C   0  0  0  0  0  0  0  0  0  0  0  0
   -0.7500   -1.2990    0.0000 C   0  0  0  0  0  0  0  0  0  0  0  0
   -1.5000    0.0000    0.0000 O   0  0  0  0  0  0  0  0  0  0  0  0
   -0.7500    1.2990    0.0000 C   0  0  0  0  0  0  0  0  0  0  0  0
    0.7500    1.2990    0.0000 C   0  0  0  0  0  0  0  0  0  0  0  0
    6.0000   -2.5981    0.0000 C   0  0  0  0  0  0  0  0  0  0  0  0
    5.2500   -3.8971    0.0000 O   0  0  0  0  0  0  0  0  0  0  0  0
    7.5000    0.0000    0.0000 R#  0  0  0  0  0  0  0  0  0  0  0  0
    7.5000   -2.5981    0.0000 R#  0  0  0  0  0  0  0  0  0  0  0  0
  1  2  1  0
  2 15  1  0
  2  3  1  0
  3  4  1  6
  4  5  1  0
  5  6  2  0
  5  7  1  0
  7  8  1  0
  8  9  1  0
  9 10  1  0
 10 11  1  0
 11 12  1  0
  3 13  1  0
 13 16  1  0
 13 14  2  0
 12  7  1  0
M  RGP  2  15   1  16   2
V   15 *
V   16 *
M  END
>  <symbol>  (202)
Mono5

>  <m_abbr>  (202)
Mono5

>  <m_type>  (202)
aa

>  <m_subtype>  (202)
non-natural

>  <m_RgroupIdx>  (202)
14,15,None,None

>  <m_Rgroups>  (202)
H,OH,None,None

>  <m_attachmentPointIdx>  (202)
1,12,None,None

>  <natAnalog>  (202)
N

$$$$

     RDKit          2D

  9  8  0  0  0  0  0  0  0  0999 V2000
    2.5981   -0.0000    0.0000 C   0  0  0  0  0  0  0  0  0  0  0  0
    1.2990    0.7500    0.0000 N   0  0  0  0  0  0  0  0  0  0  0  0
    1.2990    2.2500    0.0000 C   0  0  0  0  0  0  0  0  0  0  0  0
    2.5981    3.0000    0.0000 C   0  0  0  0  0  0  0  0  0  0  0  0
    2.5981    4.5000    0.0000 C   0  0  0  0  0  0  0  0  0  0  0  0
    3.8971    5.2500    0.0000 C   0  0  0  0  0  0  0  0  0  0  0  0
    5.1962    4.5000    0.0000 O   0  0  0  0  0  0  0  0  0  0  0  0
    0.0000    0.0000    0.0000 R#  0  0  0  0  0  0  0  0  0  0  0  0
    3.8971    6.7500    0.0000 R#  0  0  0  0  0  0  0  0  0  0  0  0
  1  2  1  0
  2  8  1  0
  2  3  1  0
  3  4  1  0
  4  5  1  0
  5  6  1  0
  6  9  1  0
  6  7  2  0
M  RGP  2   8   1   9   2
V    8 *
V    9 *
M  END
>  <symbol>  (203)
Mono6

>  <m_abbr>  (203)
Mono6

>  <m_type>  (203)
aa

>  <m_subtype>  (203)
non-natural

>  <m_RgroupIdx>  (203)
7,8,None,None

>  <m_Rgroups>  (203)
H,OH,None,None

>  <m_attachmentPointIdx>  (203)
1,5,None,None

>  <natAnalog>  (203)
X

$$$$

     RDKit          2D

  8  7  0  0  0  0  0  0  0  0999 V2000
    3.8971    0.7500    0.0000 C   0  0  0  0  0  0  0  0  0  0  0  0
    2.5981   -0.0000    0.0000 C   0  0  0  0  0  0  0  0  0  0  0  0
    2.5981   -1.5000    0.0000 C   0  0  0  0  0  0  0  0  0  0  0  0
    3.8971   -2.2500    0.0000 C   0  0  0  0  0  0  0  0  0  0  0  0
    5.1962   -1.5000    0.0000 O   0  0  0  0  0  0  0  0  0  0  0  0
    1.2990    0.7500    0.0000 N   0  0  0  0  0  0  0  0  0  0  0  0
    0.0000    0.0000    0.0000 R#  0  0  0  0  0  0  0  0  0  0  0  0
    3.8971   -3.7500    0.0000 R#  0  0  0  0  0  0  0  0  0  0  0  0
  2  1  1  1
  2  3  1  0
  3  4  1  0
  4  8  1  0
  4  5  2  0
  2  6  1  0
  6  7  1  0
M  RGP  2   7   1   8   2
V    7 *
V    8 *
M  END
>  <m_name>  (204)
L-3-aminobutyric acid

>  <symbol>  (204)
Bal(3-Me)

>  <m_abbr>  (204)
Bal(3-Me)

>  <m_type>  (204)
aa

>  <m_subtype>  (204)
non-natural

>  <m_RgroupIdx>  (204)
6,7,None,None

>  <m_Rgroups>  (204)
H,OH,None,None

>  <m_attachmentPointIdx>  (204)
5,3,None,None

>  <natAnalog>  (204)
A

$$$$

     RDKit          2D

 11 10  0  0  0  0  0  0  0  0999 V2000
    1.2990    0.7500    0.0000 N   0  0  0  0  0  0  0  0  0  0  0  0
    2.5981   -0.0000    0.0000 C   0  0  0  0  0  0  0  0  0  0  0  0
    3.8971    0.7500    0.0000 C   0  0  0  0  0  0  0  0  0  0  0  0
    5.1962   -0.0000    0.0000 C   0  0  0  0  0  0  0  0  0  0  0  0
    5.1962   -1.5000    0.0000 O   0  0  0  0  0  0  0  0  0  0  0  0
    2.5981   -1.5000    0.0000 C   0  0  0  0  0  0  0  0  0  0  0  0
    2.5981   -3.0000    0.0000 F   0  0  0  0  0  0  0  0  0  0  0  0
    4.0981   -1.5000    0.0000 F   0  0  0  0  0  0  0  0  0  0  0  0
    1.0981   -1.5000    0.0000 F   0  0  0  0  0  0  0  0  0  0  0  0
    0.0000    0.0000    0.0000 R#  0  0  0  0  0  0  0  0  0  0  0  0
    6.4952    0.7500    0.0000 R#  0  0  0  0  0  0  0  0  0  0  0  0
 10  1  1  0
  1  2  1  0
  2  3  1  1
  3  4  1  0
  4 11  1  0
  4  5  2  0
  2  6  1  0
  6  7  1  0
  6  8  1  0
  6  9  1  0
M  RGP  2  10   1  11   2
V   10 *
V   11 *
M  END
>  <m_name>  (205)
(3R)-3-(trifluoromethyl)-beta-alanine

>  <symbol>  (205)
Bal(d3-CF3)

>  <m_abbr>  (205)
Bal(d3-CF3)

>  <m_type>  (205)
aa

>  <m_subtype>  (205)
non-natural

>  <m_RgroupIdx>  (205)
9,10,None,None

>  <m_Rgroups>  (205)
H,OH,None,None

>  <m_attachmentPointIdx>  (205)
0,3,None,None

>  <natAnalog>  (205)
A

$$$$

     RDKit          2D

 20 20  0  0  0  0  0  0  0  0999 V2000
    3.7500    1.2990    0.0000 C   0  0  0  0  0  0  0  0  0  0  0  0
    3.0000    0.0000    0.0000 C   0  0  0  0  0  0  0  0  0  0  0  0
    3.7500   -1.2990    0.0000 C   0  0  0  0  0  0  0  0  0  0  0  0
    5.2500   -1.2990    0.0000 C   0  0  0  0  0  0  0  0  0  0  0  0
    6.0000   -2.5981    0.0000 C   0  0  0  0  0  0  0  0  0  0  0  0
    5.2500   -3.8971    0.0000 O   0  0  0  0  0  0  0  0  0  0  0  0
    1.5000    0.0000    0.0000 C   0  0  0  0  0  0  0  0  0  0  0  0
    0.7500   -1.2990    0.0000 C   0  0  0  0  0  0  0  0  0  0  0  0
   -0.7500   -1.2990    0.0000 C   0  0  0  0  0  0  0  0  0  0  0  0
   -1.5000    0.0000    0.0000 C   0  0  0  0  0  0  0  0  0  0  0  0
   -3.0000    0.0000    0.0000 C   0  0  0  0  0  0  0  0  0  0  0  0
   -3.7500    1.2990    0.0000 C   0  0  0  0  0  0  0  0  0  0  0  0
   -3.0000    2.5981    0.0000 N   0  0  0  0  0  0  0  0  0  0  0  0
   -5.2500    1.2990    0.0000 C   0  0  0  0  0  0  0  0  0  0  0  0
   -6.0000   -0.0000    0.0000 O   0  0  0  0  0  0  0  0  0  0  0  0
   -0.7500    1.2990    0.0000 C   0  0  0  0  0  0  0  0  0  0  0  0
    0.7500    1.2990    0.0000 C   0  0  0  0  0  0  0  0  0  0  0  0
   -3.7500    3.8971    0.0000 R#  0  0  0  0  0  0  0  0  0  0  0  0
   -6.0000    2.5981    0.0000 R#  0  0  0  0  0  0  0  0  0  0  0  0
    7.5000   -2.5981    0.0000 R#  0  0  0  0  0  0  0  0  0  0  0  0
  1  2  2  0
  2  3  1  0
  3  4  1  0
  4  5  1  0
  5 20  1  0
  5  6  2  0
  2  7  1  0
  7  8  2  0
  8  9  1  0
  9 10  2  0
 10 11  1  0
 12 11  1  1
 12 13  1  0
 13 18  1  0
 12 14  1  0
 14 19  1  0
 14 15  2  0
 10 16  1  0
 16 17  2  0
 17  7  1  0
M  RGP  3  18   1  19   2  20   3
V   18 *
V   19 *
V   20 *
M  END
>  <symbol>  (206)
Mono9

>  <m_abbr>  (206)
Mono9

>  <m_type>  (206)
aa

>  <m_subtype>  (206)
non-natural

>  <m_RgroupIdx>  (206)
17,18,19,None

>  <m_Rgroups>  (206)
H,OH,OH,None

>  <m_attachmentPointIdx>  (206)
12,13,4,None

>  <natAnalog>  (206)
F

$$$$

     RDKit          2D

 20 20  0  0  0  0  0  0  0  0999 V2000
    3.7500    1.2990    0.0000 C   0  0  0  0  0  0  0  0  0  0  0  0
    3.0000    0.0000    0.0000 C   0  0  0  0  0  0  0  0  0  0  0  0
    3.7500   -1.2990    0.0000 C   0  0  0  0  0  0  0  0  0  0  0  0
    5.2500   -1.2990    0.0000 C   0  0  0  0  0  0  0  0  0  0  0  0
    6.0000   -2.5981    0.0000 C   0  0  0  0  0  0  0  0  0  0  0  0
    5.2500   -3.8971    0.0000 O   0  0  0  0  0  0  0  0  0  0  0  0
    1.5000    0.0000    0.0000 C   0  0  0  0  0  0  0  0  0  0  0  0
    0.7500   -1.2990    0.0000 C   0  0  0  0  0  0  0  0  0  0  0  0
   -0.7500   -1.2990    0.0000 C   0  0  0  0  0  0  0  0  0  0  0  0
   -1.5000    0.0000    0.0000 C   0  0  0  0  0  0  0  0  0  0  0  0
   -0.7500    1.2990    0.0000 C   0  0  0  0  0  0  0  0  0  0  0  0
   -1.5000    2.5981    0.0000 C   0  0  0  0  0  0  0  0  0  0  0  0
   -0.7500    3.8971    0.0000 C   0  0  0  0  0  0  0  0  0  0  0  0
    0.7500    3.8971    0.0000 N   0  0  0  0  0  0  0  0  0  0  0  0
   -1.5000    5.1962    0.0000 C   0  0  0  0  0  0  0  0  0  0  0  0
   -3.0000    5.1962    0.0000 O   0  0  0  0  0  0  0  0  0  0  0  0
    0.7500    1.2990    0.0000 C   0  0  0  0  0  0  0  0  0  0  0  0
    1.5000    5.1962    0.0000 R#  0  0  0  0  0  0  0  0  0  0  0  0
   -0.7500    6.4952    0.0000 R#  0  0  0  0  0  0  0  0  0  0  0  0
    7.5000   -2.5981    0.0000 R#  0  0  0  0  0  0  0  0  0  0  0  0
  1  2  2  0
  2  3  1  0
  3  4  1  0
  4  5  1  0
  5 20  1  0
  5  6  2  0
  2  7  1  0
  7  8  2  0
  8  9  1  0
  9 10  2  0
 10 11  1  0
 11 12  1  0
 13 12  1  1
 13 14  1  0
 14 18  1  0
 13 15  1  0
 15 19  1  0
 15 16  2  0
 11 17  2  0
 17  7  1  0
M  RGP  3  18   1  19   2  20   3
V   18 *
V   19 *
V   20 *
M  END
>  <symbol>  (207)
Mono10

>  <m_abbr>  (207)
Mono10

>  <m_type>  (207)
aa

>  <m_subtype>  (207)
non-natural

>  <m_RgroupIdx>  (207)
17,18,19,None

>  <m_Rgroups>  (207)
H,OH,OH,None

>  <m_attachmentPointIdx>  (207)
13,14,4,None

>  <natAnalog>  (207)
F

$$$$

     RDKit          2D

 21 21  0  0  0  0  0  0  0  0999 V2000
    3.0000   -2.5981    0.0000 N   0  0  0  0  0  0  0  0  0  0  0  0
    3.7500   -1.2990    0.0000 C   0  0  0  0  0  0  0  0  0  0  0  0
    3.0000    0.0000    0.0000 C   0  0  0  0  0  0  0  0  0  0  0  0
    1.5000    0.0000    0.0000 C   0  0  0  0  0  0  0  0  0  0  0  0
    0.7500   -1.2990    0.0000 C   0  0  0  0  0  0  0  0  0  0  0  0
   -0.7500   -1.2990    0.0000 C   0  0  0  0  0  0  0  0  0  0  0  0
   -1.5000    0.0000    0.0000 C   0  0  0  0  0  0  0  0  0  0  0  0
   -3.0000    0.0000    0.0000 C   0  0  0  0  0  0  0  0  0  0  0  0
   -3.7500    1.2990    0.0000 C   0  0  0  0  0  0  0  0  0  0  0  0
   -5.2500    1.2990    0.0000 C   0  0  0  0  0  0  0  0  0  0  0  0
   -6.0000    2.5981    0.0000 C   0  0  0  0  0  0  0  0  0  0  0  0
   -7.5000    2.5981    0.0000 C   0  0  0  0  0  0  0  0  0  0  0  0
   -8.2500    3.8971    0.0000 C   0  0  0  0  0  0  0  0  0  0  0  0
   -7.5000    5.1962    0.0000 O   0  0  0  0  0  0  0  0  0  0  0  0
   -0.7500    1.2990    0.0000 C   0  0  0  0  0  0  0  0  0  0  0  0
    0.7500    1.2990    0.0000 C   0  0  0  0  0  0  0  0  0  0  0  0
    5.2500   -1.2990    0.0000 C   0  0  0  0  0  0  0  0  0  0  0  0
    6.0000    0.0000    0.0000 O   0  0  0  0  0  0  0  0  0  0  0  0
    3.7500   -3.8971    0.0000 R#  0  0  0  0  0  0  0  0  0  0  0  0
    6.0000   -2.5981    0.0000 R#  0  0  0  0  0  0  0  0  0  0  0  0
   -9.7500    3.8971    0.0000 R#  0  0  0  0  0  0  0  0  0  0  0  0
 19  1  1  0
  1  2  1  0
  2  3  1  1
  3  4  1  0
  4  5  2  0
  5  6  1  0
  6  7  2  0
  7  8  1  0
  8  9  1  0
  9 10  1  0
 10 11  1  0
 11 12  1  0
 12 13  1  0
 13 21  1  0
 13 14  2  0
  7 15  1  0
 15 16  2  0
  2 17  1  0
 17 20  1  0
 17 18  2  0
 16  4  1  0
M  RGP  3  19   1  20   2  21   3
V   19 *
V   20 *
V   21 *
M  END
>  <symbol>  (208)
Mono11

>  <m_abbr>  (208)
Mono11

>  <m_type>  (208)
aa

>  <m_subtype>  (208)
non-natural

>  <m_RgroupIdx>  (208)
18,19,20,None

>  <m_Rgroups>  (208)
H,OH,OH,None

>  <m_attachmentPointIdx>  (208)
0,16,12,None

>  <natAnalog>  (208)
F

$$$$

     RDKit          2D

 20 20  0  0  0  0  0  0  0  0999 V2000
    3.0000   -2.5981    0.0000 N   0  0  0  0  0  0  0  0  0  0  0  0
    3.7500   -1.2990    0.0000 C   0  0  0  0  0  0  0  0  0  0  0  0
    3.0000    0.0000    0.0000 C   0  0  0  0  0  0  0  0  0  0  0  0
    1.5000    0.0000    0.0000 C   0  0  0  0  0  0  0  0  0  0  0  0
    0.7500   -1.2990    0.0000 C   0  0  0  0  0  0  0  0  0  0  0  0
   -0.7500   -1.2990    0.0000 C   0  0  0  0  0  0  0  0  0  0  0  0
   -1.5000    0.0000    0.0000 C   0  0  0  0  0  0  0  0  0  0  0  0
   -0.7500    1.2990    0.0000 C   0  0  0  0  0  0  0  0  0  0  0  0
   -1.5000    2.5981    0.0000 C   0  0  0  0  0  0  0  0  0  0  0  0
   -0.7500    3.8971    0.0000 C   0  0  0  0  0  0  0  0  0  0  0  0
   -1.5000    5.1962    0.0000 C   0  0  0  0  0  0  0  0  0  0  0  0
   -0.7500    6.4952    0.0000 C   0  0  0  0  0  0  0  0  0  0  0  0
   -1.5000    7.7942    0.0000 C   0  0  0  0  0  0  0  0  0  0  0  0
   -3.0000    7.7942    0.0000 O   0  0  0  0  0  0  0  0  0  0  0  0
    0.7500    1.2990    0.0000 C   0  0  0  0  0  0  0  0  0  0  0  0
    5.2500   -1.2990    0.0000 C   0  0  0  0  0  0  0  0  0  0  0  0
    6.0000    0.0000    0.0000 O   0  0  0  0  0  0  0  0  0  0  0  0
    3.7500   -3.8971    0.0000 R#  0  0  0  0  0  0  0  0  0  0  0  0
    6.0000   -2.5981    0.0000 R#  0  0  0  0  0  0  0  0  0  0  0  0
   -0.7500    9.0933    0.0000 R#  0  0  0  0  0  0  0  0  0  0  0  0
 18  1  1  0
  1  2  1  0
  2  3  1  1
  3  4  1  0
  4  5  2  0
  5  6  1  0
  6  7  2  0
  7  8  1  0
  8  9  1  0
  9 10  1  0
 10 11  1  0
 11 12  1  0
 12 13  1  0
 13 20  1  0
 13 14  2  0
  8 15  2  0
  2 16  1  0
 16 19  1  0
 16 17  2  0
 15  4  1  0
M  RGP  3  18   1  19   2  20   3
V   18 *
V   19 *
V   20 *
M  END
>  <symbol>  (209)
Mono12

>  <m_abbr>  (209)
Mono12

>  <m_type>  (209)
aa

>  <m_subtype>  (209)
non-natural

>  <m_RgroupIdx>  (209)
17,18,19,None

>  <m_Rgroups>  (209)
H,OH,OH,None

>  <m_attachmentPointIdx>  (209)
0,15,12,None

>  <natAnalog>  (209)
F

$$$$

     RDKit          2D

 20 20  0  0  0  0  0  0  0  0999 V2000
    5.0260    1.2990    0.0000 C   0  0  0  0  0  0  0  0  0  0  0  0
    3.5260    1.2990    0.0000 C   0  0  0  0  0  0  0  0  0  0  0  0
    2.7760    2.5981    0.0000 N   0  0  0  0  0  0  0  0  0  0  0  0
    2.7760    0.0000    0.0000 C   0  0  0  0  0  0  0  0  0  0  0  0
    3.5260   -1.2990    0.0000 C   0  0  0  0  0  0  0  0  0  0  0  0
    2.9985   -2.5417    0.0000 O   0  0  0  0  0  0  0  0  0  0  0  0
    5.0260   -1.2990    0.0000 N   0  0  0  0  0  0  0  0  0  0  0  0
    5.7760   -2.5981    0.0000 C   0  0  0  0  0  0  0  0  0  0  0  0
    7.0750   -1.8481    0.0000 C   0  0  0  0  0  0  0  0  0  0  0  0
    4.4769   -3.3481    0.0000 C   0  0  0  0  0  0  0  0  0  0  0  0
    6.5260   -3.8971    0.0000 C   0  0  0  0  0  0  0  0  0  0  0  0
    1.2760    0.0000    0.0000 N   0  0  0  0  0  0  0  0  0  0  0  0
    0.3943    1.2135    0.0000 C   0  0  0  0  0  0  0  0  0  0  0  0
   -1.0323    0.7500    0.0000 C   0  0  0  0  0  0  0  0  0  0  0  0
   -1.0323   -0.7500    0.0000 C   0  0  0  0  0  0  0  0  0  0  0  0
    0.3943   -1.2135    0.0000 C   0  0  0  0  0  0  0  0  0  0  0  0
    0.8578   -2.6401    0.0000 C   0  0  0  0  0  0  0  0  0  0  0  0
   -0.1459   -3.7548    0.0000 O   0  0  0  0  0  0  0  0  0  0  0  0
    3.5260    3.8971    0.0000 R#  0  0  0  0  0  0  0  0  0  0  0  0
    2.1343   -3.0797    0.0000 R#  0  0  0  0  0  0  0  0  0  0  0  0
  2  1  1  1
  2  3  1  0
  3 19  1  0
  2  4  1  0
  4  5  1  0
  5  6  2  0
  5  7  1  0
  7  8  1  0
  8  9  1  0
  8 10  1  0
  8 11  1  0
  4 12  1  1
 12 13  1  0
 13 14  1  0
 14 15  1  0
 15 16  1  0
 16 17  1  6
 17 20  1  0
 17 18  2  0
 16 12  1  0
M  RGP  2  19   1  20   2
V   19 *
V   20 *
M  END
>  <symbol>  (210)
Mono13

>  <m_abbr>  (210)
Mono13

>  <m_type>  (210)
aa

>  <m_subtype>  (210)
non-natural

>  <m_RgroupIdx>  (210)
18,19,None,None

>  <m_Rgroups>  (210)
H,OH,None,None

>  <m_attachmentPointIdx>  (210)
2,16,None,None

>  <natAnalog>  (210)
P

$$$$

     RDKit          2D

 15 15  0  0  0  0  0  0  0  0999 V2000
    3.5260   -3.8971    0.0000 C   0  0  0  0  0  0  0  0  0  0  0  0
    2.7760   -2.5981    0.0000 C   0  0  0  0  0  0  0  0  0  0  0  0
    3.5260   -1.2990    0.0000 C   0  0  0  0  0  0  0  0  0  0  0  0
    5.0260   -1.2990    0.0000 C   0  0  0  0  0  0  0  0  0  0  0  0
    2.7760    0.0000    0.0000 C   0  0  0  0  0  0  0  0  0  0  0  0
    3.5260    1.2990    0.0000 N   0  0  0  0  0  0  0  0  0  0  0  0
    1.2760    0.0000    0.0000 C   0  0  0  0  0  0  0  0  0  0  0  0
    0.3943    1.2135    0.0000 N   0  0  0  0  0  0  0  0  0  0  0  0
   -1.0323    0.7500    0.0000 C   0  0  0  0  0  0  0  0  0  0  0  0
   -2.2458    1.6317    0.0000 C   0  0  0  0  0  0  0  0  0  0  0  0
   -3.6161    1.0216    0.0000 O   0  0  0  0  0  0  0  0  0  0  0  0
   -1.0323   -0.7500    0.0000 C   0  0  0  0  0  0  0  0  0  0  0  0
    0.3943   -1.2135    0.0000 S   0  0  0  0  0  0  0  0  0  0  0  0
    5.0260    1.2990    0.0000 R#  0  0  0  0  0  0  0  0  0  0  0  0
   -2.0890    3.1235    0.0000 R#  0  0  0  0  0  0  0  0  0  0  0  0
  1  2  1  0
  2  3  1  0
  3  4  1  6
  3  5  1  0
  5  6  1  1
  6 14  1  0
  5  7  1  0
  7  8  2  0
  8  9  1  0
  9 10  1  0
 10 15  1  0
 10 11  2  0
  9 12  2  0
 12 13  1  0
 13  7  1  0
M  RGP  2  14   1  15   2
V   14 *
V   15 *
M  END
>  <symbol>  (211)
Mono14

>  <m_abbr>  (211)
Mono14

>  <m_type>  (211)
aa

>  <m_subtype>  (211)
non-natural

>  <m_RgroupIdx>  (211)
13,14,None,None

>  <m_Rgroups>  (211)
H,OH,None,None

>  <m_attachmentPointIdx>  (211)
5,9,None,None

>  <natAnalog>  (211)
X

$$$$

     RDKit          2D

 18 17  0  0  0  0  0  0  0  0999 V2000
   -0.7500   -1.2990    0.0000 C   0  0  0  0  0  0  0  0  0  0  0  0
    0.0000    0.0000    0.0000 C   0  0  0  0  0  0  0  0  0  0  0  0
    1.5000    0.0000    0.0000 C   0  0  0  0  0  0  0  0  0  0  0  0
    2.2500    1.2990    0.0000 C   0  0  0  0  0  0  0  0  0  0  0  0
    3.7500    1.2990    0.0000 C   0  0  0  0  0  0  0  0  0  0  0  0
    4.5000    2.5981    0.0000 C   0  0  0  0  0  0  0  0  0  0  0  0
    4.5000   -0.0000    0.0000 C   0  0  0  0  0  0  0  0  0  0  0  0
    3.7500   -1.2990    0.0000 O   0  0  0  0  0  0  0  0  0  0  0  0
    4.5000   -2.5981    0.0000 C   0  0  0  0  0  0  0  0  0  0  0  0
    3.7500   -3.8971    0.0000 C   0  0  0  0  0  0  0  0  0  0  0  0
    5.4768   -2.7180    0.0000 O   0  0  0  0  0  0  0  0  0  0  0  0
    6.0000   -0.0000    0.0000 C   0  0  0  0  0  0  0  0  0  0  0  0
    6.7500   -1.2990    0.0000 C   0  0  0  0  0  0  0  0  0  0  0  0
    8.2500   -1.2990    0.0000 O   0  0  0  0  0  0  0  0  0  0  0  0
    6.7500    1.2990    0.0000 N   0  0  0  0  0  0  0  0  0  0  0  0
    6.0000    2.5981    0.0000 C   0  0  0  0  0  0  0  0  0  0  0  0
    8.2500    1.2990    0.0000 R#  0  0  0  0  0  0  0  0  0  0  0  0
    6.3655   -2.2050    0.0000 R#  0  0  0  0  0  0  0  0  0  0  0  0
  1  2  1  0
  2  3  2  0
  3  4  1  0
  4  5  1  0
  5  6  1  1
  5  7  1  0
  7  8  1  6
  8  9  1  0
  9 10  1  0
  9 11  2  0
  7 12  1  0
 12 13  1  0
 13 18  1  0
 13 14  2  0
 12 15  1  6
 15 16  1  0
 15 17  1  0
M  RGP  2  17   1  18   2
V   17 *
V   18 *
M  END
>  <symbol>  (212)
Mono15

>  <m_abbr>  (212)
Mono15

>  <m_type>  (212)
aa

>  <m_subtype>  (212)
non-natural

>  <m_RgroupIdx>  (212)
16,17,None,None

>  <m_Rgroups>  (212)
H,OH,None,None

>  <m_attachmentPointIdx>  (212)
14,12,None,None

>  <natAnalog>  (212)
T

$$$$

     RDKit          2D

 11 10  0  0  0  0  0  0  0  0999 V2000
    1.2990    0.7500    0.0000 O   0  0  0  0  0  0  0  0  0  0  0  0
    2.5981   -0.0000    0.0000 C   0  0  0  0  0  0  0  0  0  0  0  0
    3.8971    0.7500    0.0000 C   0  0  0  0  0  0  0  0  0  0  0  0
    5.1962   -0.0000    0.0000 C   0  0  0  0  0  0  0  0  0  0  0  0
    5.1962   -1.5000    0.0000 O   0  0  0  0  0  0  0  0  0  0  0  0
    6.4952    0.7500    0.0000 C   0  0  0  0  0  0  0  0  0  0  0  0
    7.7942   -0.0000    0.0000 Cl  0  0  0  0  0  0  0  0  0  0  0  0
    2.5981   -1.5000    0.0000 C   0  0  0  0  0  0  0  0  0  0  0  0
    1.2990   -2.2500    0.0000 O   0  0  0  0  0  0  0  0  0  0  0  0
    0.0000    0.0000    0.0000 R#  0  0  0  0  0  0  0  0  0  0  0  0
    3.8971   -2.2500    0.0000 R#  0  0  0  0  0  0  0  0  0  0  0  0
 10  1  1  0
  1  2  1  0
  2  3  1  6
  3  4  1  0
  4  5  1  0
  4  6  1  0
  6  7  1  0
  2  8  1  0
  8 11  1  0
  8  9  2  0
M  RGP  2  10   1  11   2
V   10 *
V   11 *
M  END
>  <symbol>  (213)
Mono16

>  <m_abbr>  (213)
Mono16

>  <m_type>  (213)
aa

>  <m_subtype>  (213)
non-natural

>  <m_RgroupIdx>  (213)
9,10,None,None

>  <m_Rgroups>  (213)
H,OH,None,None

>  <m_attachmentPointIdx>  (213)
0,7,None,None

>  <natAnalog>  (213)
X

$$$$

     RDKit          2D

 12 12  0  0  0  0  0  0  0  0999 V2000
    3.5260   -1.2990    0.0000 C   0  0  0  0  0  0  0  0  0  0  0  0
    2.7760    0.0000    0.0000 C   0  0  0  0  0  0  0  0  0  0  0  0
    3.5260    1.2990    0.0000 N   0  0  0  0  0  0  0  0  0  0  0  0
    1.2760    0.0000    0.0000 C   0  0  0  0  0  0  0  0  0  0  0  0
    0.3943    1.2135    0.0000 N   0  0  0  0  0  0  0  0  0  0  0  0
   -1.0323    0.7500    0.0000 C   0  0  0  0  0  0  0  0  0  0  0  0
   -2.2458    1.6317    0.0000 C   0  0  0  0  0  0  0  0  0  0  0  0
   -3.6161    1.0216    0.0000 O   0  0  0  0  0  0  0  0  0  0  0  0
   -1.0323   -0.7500    0.0000 C   0  0  0  0  0  0  0  0  0  0  0  0
    0.3943   -1.2135    0.0000 S   0  0  0  0  0  0  0  0  0  0  0  0
    5.0260    1.2990    0.0000 R#  0  0  0  0  0  0  0  0  0  0  0  0
   -2.0890    3.1235    0.0000 R#  0  0  0  0  0  0  0  0  0  0  0  0
  2  1  1  6
  2  3  1  0
  3 11  1  0
  2  4  1  0
  4  5  2  0
  5  6  1  0
  6  7  1  0
  7 12  1  0
  7  8  2  0
  6  9  2  0
  9 10  1  0
 10  4  1  0
M  RGP  2  11   1  12   2
V   11 *
V   12 *
M  END
>  <symbol>  (214)
Mono17

>  <m_abbr>  (214)
Mono17

>  <m_type>  (214)
aa

>  <m_subtype>  (214)
non-natural

>  <m_RgroupIdx>  (214)
10,11,None,None

>  <m_Rgroups>  (214)
H,OH,None,None

>  <m_attachmentPointIdx>  (214)
2,6,None,None

>  <natAnalog>  (214)
X

$$$$

     RDKit          2D

 16 16  0  0  0  0  0  0  0  0999 V2000
    3.5260   -3.8971    0.0000 C   0  0  0  0  0  0  0  0  0  0  0  0
    2.7760   -2.5981    0.0000 C   0  0  0  0  0  0  0  0  0  0  0  0
    3.5260   -1.2990    0.0000 C   0  0  0  0  0  0  0  0  0  0  0  0
    5.0260   -1.2990    0.0000 C   0  0  0  0  0  0  0  0  0  0  0  0
    2.7760    0.0000    0.0000 C   0  0  0  0  0  0  0  0  0  0  0  0
    3.5260    1.2990    0.0000 N   0  0  0  0  0  0  0  0  0  0  0  0
    1.2760    0.0000    0.0000 C   0  0  0  0  0  0  0  0  0  0  0  0
    0.3943    1.2135    0.0000 N   0  0  0  0  0  0  0  0  0  0  0  0
   -1.0323    0.7500    0.0000 C   0  0  0  0  0  0  0  0  0  0  0  0
   -2.2458    1.6317    0.0000 C   0  0  0  0  0  0  0  0  0  0  0  0
   -3.6161    1.0216    0.0000 O   0  0  0  0  0  0  0  0  0  0  0  0
   -1.0323   -0.7500    0.0000 C   0  0  0  0  0  0  0  0  0  0  0  0
   -2.2458   -1.6317    0.0000 C   0  0  0  0  0  0  0  0  0  0  0  0
    0.3943   -1.2135    0.0000 O   0  0  0  0  0  0  0  0  0  0  0  0
    5.0260    1.2990    0.0000 R#  0  0  0  0  0  0  0  0  0  0  0  0
   -2.0890    3.1235    0.0000 R#  0  0  0  0  0  0  0  0  0  0  0  0
  1  2  1  0
  2  3  1  0
  3  4  1  1
  3  5  1  0
  5  6  1  1
  6 15  1  0
  5  7  1  0
  7  8  2  0
  8  9  1  0
  9 10  1  1
 10 16  1  0
 10 11  2  0
  9 12  1  0
 12 13  1  6
 12 14  1  0
 14  7  1  0
M  RGP  2  15   1  16   2
V   15 *
V   16 *
M  END
>  <symbol>  (215)
Mono18

>  <m_abbr>  (215)
Mono18

>  <m_type>  (215)
aa

>  <m_subtype>  (215)
non-natural

>  <m_RgroupIdx>  (215)
14,15,None,None

>  <m_Rgroups>  (215)
H,OH,None,None

>  <m_attachmentPointIdx>  (215)
5,9,None,None

>  <natAnalog>  (215)
X

$$$$

     RDKit          2D

 18 19  0  0  0  0  0  0  0  0999 V2000
   -0.7500   -3.8971    0.0000 N   0  0  0  0  0  0  0  0  0  0  0  0
    0.7500   -3.8971    0.0000 C   0  0  0  0  0  0  0  0  0  0  0  0
    1.5000   -2.5981    0.0000 C   0  0  0  0  0  0  0  0  0  0  0  0
    0.7500   -1.2990    0.0000 C   0  0  0  0  0  0  0  0  0  0  0  0
    1.5000    0.0000    0.0000 C   0  0  0  0  0  0  0  0  0  0  0  0
    0.7500    1.2990    0.0000 C   0  0  0  0  0  0  0  0  0  0  0  0
   -0.7500    1.2990    0.0000 C   0  0  0  0  0  0  0  0  0  0  0  0
   -1.5000    0.0000    0.0000 C   0  0  0  0  0  0  0  0  0  0  0  0
   -0.7500   -1.2990    0.0000 C   0  0  0  0  0  0  0  0  0  0  0  0
    1.5000   -5.1962    0.0000 C   0  0  0  0  0  0  0  0  0  0  0  0
    2.9918   -5.3529    0.0000 N   0  0  0  0  0  0  0  0  0  0  0  0
    3.3037   -6.8202    0.0000 C   0  0  0  0  0  0  0  0  0  0  0  0
    4.6740   -7.4303    0.0000 C   0  0  0  0  0  0  0  0  0  0  0  0
    5.8875   -6.5486    0.0000 O   0  0  0  0  0  0  0  0  0  0  0  0
    2.0046   -7.5702    0.0000 C   0  0  0  0  0  0  0  0  0  0  0  0
    0.8899   -6.5665    0.0000 S   0  0  0  0  0  0  0  0  0  0  0  0
   -1.5000   -5.1962    0.0000 R#  0  0  0  0  0  0  0  0  0  0  0  0
    4.8308   -8.9221    0.0000 R#  0  0  0  0  0  0  0  0  0  0  0  0
 17  1  1  0
  1  2  1  0
  2  3  1  6
  3  4  1  0
  4  5  2  0
  5  6  1  0
  6  7  2  0
  7  8  1  0
  8  9  2  0
  2 10  1  0
 10 11  2  0
 11 12  1  0
 12 13  1  0
 13 18  1  0
 13 14  2  0
 12 15  2  0
 15 16  1  0
  9  4  1  0
 16 10  1  0
M  RGP  2  17   1  18   2
V   17 *
V   18 *
M  END
>  <symbol>  (216)
Mono19

>  <m_abbr>  (216)
Mono19

>  <m_type>  (216)
aa

>  <m_subtype>  (216)
non-natural

>  <m_RgroupIdx>  (216)
16,17,None,None

>  <m_Rgroups>  (216)
H,OH,None,None

>  <m_attachmentPointIdx>  (216)
0,12,None,None

>  <natAnalog>  (216)
X

$$$$

     RDKit          2D

 15 15  0  0  0  0  0  0  0  0999 V2000
    5.0260   -1.2990    0.0000 C   0  0  0  0  0  0  0  0  0  0  0  0
    3.5260   -1.2990    0.0000 C   0  0  0  0  0  0  0  0  0  0  0  0
    2.7760   -2.5981    0.0000 C   0  0  0  0  0  0  0  0  0  0  0  0
    2.7760    0.0000    0.0000 C   0  0  0  0  0  0  0  0  0  0  0  0
    3.5260    1.2990    0.0000 N   0  0  0  0  0  0  0  0  0  0  0  0
    1.2760    0.0000    0.0000 C   0  0  0  0  0  0  0  0  0  0  0  0
    0.3943    1.2135    0.0000 N   0  0  0  0  0  0  0  0  0  0  0  0
   -1.0323    0.7500    0.0000 C   0  0  0  0  0  0  0  0  0  0  0  0
   -2.2458    1.6317    0.0000 C   0  0  0  0  0  0  0  0  0  0  0  0
   -3.6161    1.0216    0.0000 O   0  0  0  0  0  0  0  0  0  0  0  0
   -1.0323   -0.7500    0.0000 C   0  0  0  0  0  0  0  0  0  0  0  0
   -2.2458   -1.6317    0.0000 C   0  0  0  0  0  0  0  0  0  0  0  0
    0.3943   -1.2135    0.0000 O   0  0  0  0  0  0  0  0  0  0  0  0
    5.0260    1.2990    0.0000 R#  0  0  0  0  0  0  0  0  0  0  0  0
   -2.0890    3.1235    0.0000 R#  0  0  0  0  0  0  0  0  0  0  0  0
  1  2  1  0
  2  3  1  0
  2  4  1  0
  4  5  1  1
  5 14  1  0
  4  6  1  0
  6  7  2  0
  7  8  1  0
  8  9  1  1
  9 15  1  0
  9 10  2  0
  8 11  1  0
 11 12  1  6
 11 13  1  0
 13  6  1  0
M  RGP  2  14   1  15   2
V   14 *
V   15 *
M  END
>  <symbol>  (217)
Mono20

>  <m_abbr>  (217)
Mono20

>  <m_type>  (217)
aa

>  <m_subtype>  (217)
non-natural

>  <m_RgroupIdx>  (217)
13,14,None,None

>  <m_Rgroups>  (217)
H,OH,None,None

>  <m_attachmentPointIdx>  (217)
4,8,None,None

>  <natAnalog>  (217)
X

$$$$

     RDKit          2D

  9  8  0  0  0  0  0  0  0  0999 V2000
    5.1962   -0.0000    0.0000 C   0  0  0  0  0  0  0  0  0  0  0  0
    3.8971    0.7500    0.0000 C   0  0  0  0  0  0  0  0  0  0  0  0
    3.8971    2.2500    0.0000 N   0  0  0  0  0  0  0  0  0  0  0  0
    2.5981   -0.0000    0.0000 C   0  0  0  0  0  0  0  0  0  0  0  0
    1.2990    0.7500    0.0000 N   0  0  0  0  0  0  0  0  0  0  0  0
    2.5981   -1.5000    0.0000 C   0  0  0  0  0  0  0  0  0  0  0  0
    1.2990   -2.2500    0.0000 O   0  0  0  0  0  0  0  0  0  0  0  0
    0.0000    0.0000    0.0000 R#  0  0  0  0  0  0  0  0  0  0  0  0
    3.8971   -2.2500    0.0000 R#  0  0  0  0  0  0  0  0  0  0  0  0
  2  1  1  6
  2  3  1  0
  2  4  1  0
  4  5  1  1
  5  8  1  0
  4  6  1  0
  6  9  1  0
  6  7  2  0
M  RGP  2   8   1   9   2
V    8 *
V    9 *
M  END
>  <symbol>  (218)
Mono23

>  <m_abbr>  (218)
Mono23

>  <m_type>  (218)
aa

>  <m_subtype>  (218)
non-natural

>  <m_RgroupIdx>  (218)
7,8,None,None

>  <m_Rgroups>  (218)
H,OH,None,None

>  <m_attachmentPointIdx>  (218)
4,5,None,None

>  <natAnalog>  (218)
X

$$$$

     RDKit          2D

 13 12  0  0  0  0  0  0  0  0999 V2000
    5.1962   -0.0000    0.0000 C   0  0  0  0  0  0  0  0  0  0  0  0
    3.8971    0.7500    0.0000 C   0  0  0  0  0  0  0  0  0  0  0  0
    2.5981   -0.0000    0.0000 C   0  0  0  0  0  0  0  0  0  0  0  0
    1.2990    0.7500    0.0000 N   0  0  0  0  0  0  0  0  0  0  0  0
    2.5981   -1.5000    0.0000 C   0  0  0  0  0  0  0  0  0  0  0  0
    1.2990   -2.2500    0.0000 O   0  0  0  0  0  0  0  0  0  0  0  0
    3.8971    2.2500    0.0000 C   0  0  0  0  0  0  0  0  0  0  0  0
    5.1962    3.0000    0.0000 C   0  0  0  0  0  0  0  0  0  0  0  0
    2.5981    3.0000    0.0000 C   0  0  0  0  0  0  0  0  0  0  0  0
    2.5981    4.5000    0.0000 N   0  0  0  0  0  0  0  0  0  0  0  0
    1.2990    2.2500    0.0000 O   0  0  0  0  0  0  0  0  0  0  0  0
    0.0000    0.0000    0.0000 R#  0  0  0  0  0  0  0  0  0  0  0  0
    3.8971   -2.2500    0.0000 R#  0  0  0  0  0  0  0  0  0  0  0  0
  2  1  1  6
  2  3  1  0
  3  4  1  1
  4 12  1  0
  3  5  1  0
  5 13  1  0
  5  6  2  0
  2  7  1  0
  7  8  1  6
  7  9  1  0
  9 10  1  0
  9 11  2  0
M  RGP  2  12   1  13   2
V   12 *
V   13 *
M  END
>  <symbol>  (219)
Mono24

>  <m_abbr>  (219)
Mono24

>  <m_type>  (219)
aa

>  <m_subtype>  (219)
non-natural

>  <m_RgroupIdx>  (219)
11,12,None,None

>  <m_Rgroups>  (219)
H,OH,None,None

>  <m_attachmentPointIdx>  (219)
3,4,None,None

>  <natAnalog>  (219)
Q

$$$$

     RDKit          2D

 11 11  0  0  0  0  0  0  0  0999 V2000
    1.5000    0.0000    0.0000 N   0  0  0  0  0  0  0  0  0  0  0  0
    0.7500   -1.2990    0.0000 C   0  0  0  0  0  0  0  0  0  0  0  0
   -0.7500   -1.2990    0.0000 C   0  0  0  0  0  0  0  0  0  0  0  0
   -1.5000    0.0000    0.0000 C   0  0  0  0  0  0  0  0  0  0  0  0
   -3.0000    0.0000    0.0000 Cl  0  0  0  0  0  0  0  0  0  0  0  0
   -0.7500    1.2990    0.0000 C   0  0  0  0  0  0  0  0  0  0  0  0
    0.7500    1.2990    0.0000 C   0  0  0  0  0  0  0  0  0  0  0  0
    1.5000    2.5981    0.0000 C   0  0  0  0  0  0  0  0  0  0  0  0
    0.7500    3.8971    0.0000 O   0  0  0  0  0  0  0  0  0  0  0  0
    3.0000    0.0000    0.0000 R#  0  0  0  0  0  0  0  0  0  0  0  0
    3.0000    2.5981    0.0000 R#  0  0  0  0  0  0  0  0  0  0  0  0
 10  1  1  0
  1  2  1  0
  2  3  1  0
  3  4  1  0
  4  5  1  6
  4  6  1  0
  6  7  1  0
  7  8  1  1
  8 11  1  0
  8  9  2  0
  7  1  1  0
M  RGP  2  10   1  11   2
V   10 *
V   11 *
M  END
>  <symbol>  (220)
Mono25

>  <m_abbr>  (220)
Mono25

>  <m_type>  (220)
aa

>  <m_subtype>  (220)
non-natural

>  <m_RgroupIdx>  (220)
9,10,None,None

>  <m_Rgroups>  (220)
H,OH,None,None

>  <m_attachmentPointIdx>  (220)
0,7,None,None

>  <natAnalog>  (220)
X

$$$$

     RDKit          2D

 13 12  0  0  0  0  0  0  0  0999 V2000
    5.1962    3.0000    0.0000 C   0  0  0  0  0  0  0  0  0  0  0  0
    3.8971    2.2500    0.0000 C   0  0  0  0  0  0  0  0  0  0  0  0
    3.8971    0.7500    0.0000 C   0  0  0  0  0  0  0  0  0  0  0  0
    5.1962   -0.0000    0.0000 C   0  0  0  0  0  0  0  0  0  0  0  0
    2.5981   -0.0000    0.0000 C   0  0  0  0  0  0  0  0  0  0  0  0
    1.2990    0.7500    0.0000 N   0  0  0  0  0  0  0  0  0  0  0  0
    2.5981   -1.5000    0.0000 C   0  0  0  0  0  0  0  0  0  0  0  0
    1.2990   -2.2500    0.0000 O   0  0  0  0  0  0  0  0  0  0  0  0
    3.8971   -2.2500    0.0000 C   0  0  0  0  0  0  0  0  0  0  0  0
    3.8971   -3.7500    0.0000 C   0  0  0  0  0  0  0  0  0  0  0  0
    2.5981   -4.5000    0.0000 O   0  0  0  0  0  0  0  0  0  0  0  0
    0.0000    0.0000    0.0000 R#  0  0  0  0  0  0  0  0  0  0  0  0
    5.1962   -4.5000    0.0000 R#  0  0  0  0  0  0  0  0  0  0  0  0
  1  2  1  0
  2  3  1  0
  3  4  1  6
  3  5  1  0
  5  6  1  6
  6 12  1  0
  5  7  1  0
  7  8  1  6
  7  9  1  0
  9 10  1  0
 10 13  1  0
 10 11  2  0
M  RGP  2  12   1  13   2
V   12 *
V   13 *
M  END
>  <m_name>  (221)
Isostatine

>  <symbol>  (221)
Mono26

>  <m_abbr>  (221)
Mono26

>  <m_type>  (221)
aa

>  <m_subtype>  (221)
non-natural

>  <m_RgroupIdx>  (221)
11,12,None,None

>  <m_Rgroups>  (221)
H,OH,None,None

>  <m_attachmentPointIdx>  (221)
5,9,None,None

>  <natAnalog>  (221)
I

$$$$

     RDKit          2D

 13 12  0  0  0  0  0  0  0  0999 V2000
    5.1962   -0.0000    0.0000 C   0  0  0  0  0  0  0  0  0  0  0  0
    3.8971    0.7500    0.0000 C   0  0  0  0  0  0  0  0  0  0  0  0
    3.8971    2.2500    0.0000 C   0  0  0  0  0  0  0  0  0  0  0  0
    2.5981   -0.0000    0.0000 C   0  0  0  0  0  0  0  0  0  0  0  0
    1.2990    0.7500    0.0000 O   0  0  0  0  0  0  0  0  0  0  0  0
    2.5981   -1.5000    0.0000 C   0  0  0  0  0  0  0  0  0  0  0  0
    1.2990   -2.2500    0.0000 O   0  0  0  0  0  0  0  0  0  0  0  0
    3.8971   -2.2500    0.0000 C   0  0  0  0  0  0  0  0  0  0  0  0
    5.1962   -1.5000    0.0000 C   0  0  0  0  0  0  0  0  0  0  0  0
    3.8971   -3.7500    0.0000 C   0  0  0  0  0  0  0  0  0  0  0  0
    5.1962   -4.5000    0.0000 O   0  0  0  0  0  0  0  0  0  0  0  0
    0.0000    0.0000    0.0000 R#  0  0  0  0  0  0  0  0  0  0  0  0
    2.5981   -4.5000    0.0000 R#  0  0  0  0  0  0  0  0  0  0  0  0
  1  2  1  0
  2  3  1  0
  2  4  1  0
  4  5  1  1
  5 12  1  0
  4  6  1  0
  6  7  2  0
  6  8  1  0
  8  9  1  6
  8 10  1  0
 10 13  1  0
 10 11  2  0
M  RGP  2  12   1  13   2
V   12 *
V   13 *
M  END
>  <symbol>  (222)
Mono27

>  <m_abbr>  (222)
Mono27

>  <m_type>  (222)
aa

>  <m_subtype>  (222)
non-natural

>  <m_RgroupIdx>  (222)
11,12,None,None

>  <m_Rgroups>  (222)
H,OH,None,None

>  <m_attachmentPointIdx>  (222)
4,9,None,None

>  <natAnalog>  (222)
V

$$$$

     RDKit          2D

 13 12  0  0  0  0  0  0  0  0999 V2000
   -0.7500    1.2990    0.0000 C   0  0  0  0  0  0  0  0  0  0  0  0
    0.0000    0.0000    0.0000 C   0  0  0  0  0  0  0  0  0  0  0  0
    1.5000    0.0000    0.0000 C   0  0  0  0  0  0  0  0  0  0  0  0
    2.2500    1.2990    0.0000 C   0  0  0  0  0  0  0  0  0  0  0  0
    3.7500    1.2990    0.0000 C   0  0  0  0  0  0  0  0  0  0  0  0
    4.5000    2.5981    0.0000 C   0  0  0  0  0  0  0  0  0  0  0  0
    6.0000    2.5981    0.0000 C   0  0  0  0  0  0  0  0  0  0  0  0
    3.7500    3.8971    0.0000 C   0  0  0  0  0  0  0  0  0  0  0  0
    1.5000    2.5981    0.0000 N   0  0  0  0  0  0  0  0  0  0  0  0
   -0.7500   -1.2990    0.0000 C   0  0  0  0  0  0  0  0  0  0  0  0
    0.0000   -2.5981    0.0000 O   0  0  0  0  0  0  0  0  0  0  0  0
    2.2500    3.8971    0.0000 R#  0  0  0  0  0  0  0  0  0  0  0  0
   -2.2500   -1.2990    0.0000 R#  0  0  0  0  0  0  0  0  0  0  0  0
  1  2  1  0
  2  3  2  0
  3  4  1  0
  4  5  1  1
  5  6  1  0
  6  7  1  0
  6  8  1  0
  4  9  1  0
  9 12  1  0
  2 10  1  0
 10 13  1  0
 10 11  2  0
M  RGP  2  12   1  13   2
V   12 *
V   13 *
M  END
>  <symbol>  (223)
Mono28

>  <m_abbr>  (223)
Mono28

>  <m_type>  (223)
aa

>  <m_subtype>  (223)
non-natural

>  <m_RgroupIdx>  (223)
11,12,None,None

>  <m_Rgroups>  (223)
H,OH,None,None

>  <m_attachmentPointIdx>  (223)
8,9,None,None

>  <natAnalog>  (223)
X

$$$$

     RDKit          2D

 13 12  0  0  0  0  0  0  0  0999 V2000
   -0.7500    1.2990    0.0000 C   0  0  0  0  0  0  0  0  0  0  0  0
    0.0000    0.0000    0.0000 C   0  0  0  0  0  0  0  0  0  0  0  0
    1.5000    0.0000    0.0000 C   0  0  0  0  0  0  0  0  0  0  0  0
    2.2500    1.2990    0.0000 C   0  0  0  0  0  0  0  0  0  0  0  0
    3.7500    1.2990    0.0000 C   0  0  0  0  0  0  0  0  0  0  0  0
    4.5000    2.5981    0.0000 C   0  0  0  0  0  0  0  0  0  0  0  0
    6.0000    2.5981    0.0000 C   0  0  0  0  0  0  0  0  0  0  0  0
    3.7500    3.8971    0.0000 C   0  0  0  0  0  0  0  0  0  0  0  0
    1.5000    2.5981    0.0000 N   0  0  0  0  0  0  0  0  0  0  0  0
   -0.7500   -1.2990    0.0000 C   0  0  0  0  0  0  0  0  0  0  0  0
    0.0000   -2.5981    0.0000 O   0  0  0  0  0  0  0  0  0  0  0  0
    2.2500    3.8971    0.0000 R#  0  0  0  0  0  0  0  0  0  0  0  0
   -2.2500   -1.2990    0.0000 R#  0  0  0  0  0  0  0  0  0  0  0  0
  1  2  1  0
  2  3  2  0
  3  4  1  0
  4  5  1  6
  5  6  1  0
  6  7  1  0
  6  8  1  0
  4  9  1  0
  9 12  1  0
  2 10  1  0
 10 13  1  0
 10 11  2  0
M  RGP  2  12   1  13   2
V   12 *
V   13 *
M  END
>  <symbol>  (224)
Mono29

>  <m_abbr>  (224)
Mono29

>  <m_type>  (224)
aa

>  <m_subtype>  (224)
non-natural

>  <m_RgroupIdx>  (224)
11,12,None,None

>  <m_Rgroups>  (224)
H,OH,None,None

>  <m_attachmentPointIdx>  (224)
8,9,None,None

>  <natAnalog>  (224)
X

$$$$

     RDKit          2D

 15 15  0  0  0  0  0  0  0  0999 V2000
    5.7760   -2.5981    0.0000 C   0  0  0  0  0  0  0  0  0  0  0  0
    5.0260   -1.2990    0.0000 C   0  0  0  0  0  0  0  0  0  0  0  0
    5.7760    0.0000    0.0000 C   0  0  0  0  0  0  0  0  0  0  0  0
    3.5260   -1.2990    0.0000 C   0  0  0  0  0  0  0  0  0  0  0  0
    2.7760    0.0000    0.0000 C   0  0  0  0  0  0  0  0  0  0  0  0
    3.5260    1.2990    0.0000 N   0  0  0  0  0  0  0  0  0  0  0  0
    1.2760    0.0000    0.0000 C   0  0  0  0  0  0  0  0  0  0  0  0
    0.3943    1.2135    0.0000 N   0  0  0  0  0  0  0  0  0  0  0  0
   -1.0323    0.7500    0.0000 C   0  0  0  0  0  0  0  0  0  0  0  0
   -2.2458    1.6317    0.0000 C   0  0  0  0  0  0  0  0  0  0  0  0
   -3.6161    1.0216    0.0000 O   0  0  0  0  0  0  0  0  0  0  0  0
   -1.0323   -0.7500    0.0000 C   0  0  0  0  0  0  0  0  0  0  0  0
    0.3943   -1.2135    0.0000 S   0  0  0  0  0  0  0  0  0  0  0  0
    5.0260    1.2990    0.0000 R#  0  0  0  0  0  0  0  0  0  0  0  0
   -2.0890    3.1235    0.0000 R#  0  0  0  0  0  0  0  0  0  0  0  0
  1  2  1  0
  2  3  1  0
  2  4  1  0
  5  4  1  1
  5  6  1  0
  6 14  1  0
  5  7  1  0
  7  8  2  0
  8  9  1  0
  9 10  1  0
 10 15  1  0
 10 11  2  0
  9 12  2  0
 12 13  1  0
 13  7  1  0
M  RGP  2  14   1  15   2
V   14 *
V   15 *
M  END
>  <symbol>  (225)
Mono30

>  <m_abbr>  (225)
Mono30

>  <m_type>  (225)
aa

>  <m_subtype>  (225)
non-natural

>  <m_RgroupIdx>  (225)
13,14,None,None

>  <m_Rgroups>  (225)
H,OH,None,None

>  <m_attachmentPointIdx>  (225)
5,9,None,None

>  <natAnalog>  (225)
X

$$$$

     RDKit          2D

 14 14  0  0  0  0  0  0  0  0999 V2000
    5.0260   -1.2990    0.0000 C   0  0  0  0  0  0  0  0  0  0  0  0
    3.5260   -1.2990    0.0000 C   0  0  0  0  0  0  0  0  0  0  0  0
    2.7760   -2.5981    0.0000 C   0  0  0  0  0  0  0  0  0  0  0  0
    2.7760    0.0000    0.0000 C   0  0  0  0  0  0  0  0  0  0  0  0
    3.5260    1.2990    0.0000 N   0  0  0  0  0  0  0  0  0  0  0  0
    1.2760    0.0000    0.0000 C   0  0  0  0  0  0  0  0  0  0  0  0
    0.3943    1.2135    0.0000 N   0  0  0  0  0  0  0  0  0  0  0  0
   -1.0323    0.7500    0.0000 C   0  0  0  0  0  0  0  0  0  0  0  0
   -2.2458    1.6317    0.0000 C   0  0  0  0  0  0  0  0  0  0  0  0
   -3.6161    1.0216    0.0000 O   0  0  0  0  0  0  0  0  0  0  0  0
   -1.0323   -0.7500    0.0000 C   0  0  0  0  0  0  0  0  0  0  0  0
    0.3943   -1.2135    0.0000 S   0  0  0  0  0  0  0  0  0  0  0  0
    5.0260    1.2990    0.0000 R#  0  0  0  0  0  0  0  0  0  0  0  0
   -2.0890    3.1235    0.0000 R#  0  0  0  0  0  0  0  0  0  0  0  0
  1  2  1  0
  2  3  1  0
  2  4  1  0
  4  5  1  1
  5 13  1  0
  4  6  1  0
  6  7  2  0
  7  8  1  0
  8  9  1  0
  9 14  1  0
  9 10  2  0
  8 11  2  0
 11 12  1  0
 12  6  1  0
M  RGP  2  13   1  14   2
V   13 *
V   14 *
M  END
>  <symbol>  (226)
Mono31

>  <m_abbr>  (226)
Mono31

>  <m_type>  (226)
aa

>  <m_subtype>  (226)
non-natural

>  <m_RgroupIdx>  (226)
12,13,None,None

>  <m_Rgroups>  (226)
H,OH,None,None

>  <m_attachmentPointIdx>  (226)
4,8,None,None

>  <natAnalog>  (226)
X

$$$$

     RDKit          2D

 17 17  0  0  0  0  0  0  0  0999 V2000
    3.7500   -1.2990    0.0000 N   0  0  0  0  0  0  0  0  0  0  0  0
    3.0000   -2.5981    0.0000 C   0  0  0  0  0  0  0  0  0  0  0  0
    3.7500   -3.8971    0.0000 C   0  0  0  0  0  0  0  0  0  0  0  0
    5.2500   -3.8971    0.0000 O   0  0  0  0  0  0  0  0  0  0  0  0
    3.0000    0.0000    0.0000 C   0  0  0  0  0  0  0  0  0  0  0  0
    1.5000    0.0000    0.0000 C   0  0  0  0  0  0  0  0  0  0  0  0
    0.7500   -1.2990    0.0000 C   0  0  0  0  0  0  0  0  0  0  0  0
   -0.7500   -1.2990    0.0000 C   0  0  0  0  0  0  0  0  0  0  0  0
   -1.5000    0.0000    0.0000 C   0  0  0  0  0  0  0  0  0  0  0  0
   -0.7500    1.2990    0.0000 C   0  0  0  0  0  0  0  0  0  0  0  0
   -1.5000    2.5981    0.0000 C   0  0  0  0  0  0  0  0  0  0  0  0
   -2.2500    3.8971    0.0000 F   0  0  0  0  0  0  0  0  0  0  0  0
   -0.2010    3.3481    0.0000 F   0  0  0  0  0  0  0  0  0  0  0  0
   -2.7990    1.8481    0.0000 F   0  0  0  0  0  0  0  0  0  0  0  0
    0.7500    1.2990    0.0000 C   0  0  0  0  0  0  0  0  0  0  0  0
    5.2500   -1.2990    0.0000 R#  0  0  0  0  0  0  0  0  0  0  0  0
    3.0000   -5.1962    0.0000 R#  0  0  0  0  0  0  0  0  0  0  0  0
 16  1  1  0
  1  2  1  0
  2  3  1  0
  3 17  1  0
  3  4  2  0
  1  5  1  0
  5  6  1  0
  6  7  2  0
  7  8  1  0
  8  9  2  0
  9 10  1  0
 10 11  1  0
 11 12  1  0
 11 13  1  0
 11 14  1  0
 10 15  2  0
 15  6  1  0
M  RGP  2  16   1  17   2
V   16 *
V   17 *
M  END
>  <m_name>  (227)
N-{[3-(trifluoromethyl)phenyl]methyl}glycine

>  <symbol>  (227)
Mono32

>  <m_abbr>  (227)
Mono32

>  <m_type>  (227)
aa

>  <m_subtype>  (227)
non-natural

>  <m_RgroupIdx>  (227)
15,16,None,None

>  <m_Rgroups>  (227)
H,OH,None,None

>  <m_attachmentPointIdx>  (227)
0,2,None,None

>  <natAnalog>  (227)
G

$$$$

     RDKit          2D

 13 13  0  0  0  0  0  0  0  0999 V2000
    3.7500   -1.2990    0.0000 N   0  0  0  0  0  0  0  0  0  0  0  0
    3.0000   -2.5981    0.0000 C   0  0  0  0  0  0  0  0  0  0  0  0
    3.7500   -3.8971    0.0000 C   0  0  0  0  0  0  0  0  0  0  0  0
    5.2500   -3.8971    0.0000 O   0  0  0  0  0  0  0  0  0  0  0  0
    3.0000    0.0000    0.0000 C   0  0  0  0  0  0  0  0  0  0  0  0
    1.5000    0.0000    0.0000 N   0  0  0  0  0  0  0  0  0  0  0  0
    0.7500   -1.2990    0.0000 C   0  0  0  0  0  0  0  0  0  0  0  0
   -0.7500   -1.2990    0.0000 C   0  0  0  0  0  0  0  0  0  0  0  0
   -1.5000    0.0000    0.0000 O   0  0  0  0  0  0  0  0  0  0  0  0
   -0.7500    1.2990    0.0000 C   0  0  0  0  0  0  0  0  0  0  0  0
    0.7500    1.2990    0.0000 C   0  0  0  0  0  0  0  0  0  0  0  0
    5.2500   -1.2990    0.0000 R#  0  0  0  0  0  0  0  0  0  0  0  0
    3.0000   -5.1962    0.0000 R#  0  0  0  0  0  0  0  0  0  0  0  0
 12  1  1  0
  1  2  1  0
  2  3  1  0
  3 13  1  0
  3  4  2  0
  1  5  1  0
  5  6  1  0
  6  7  1  0
  7  8  1  0
  8  9  1  0
  9 10  1  0
 10 11  1  0
 11  6  1  0
M  RGP  2  12   1  13   2
V   12 *
V   13 *
M  END
>  <symbol>  (228)
Mono33

>  <m_abbr>  (228)
Mono33

>  <m_type>  (228)
aa

>  <m_subtype>  (228)
non-natural

>  <m_RgroupIdx>  (228)
11,12,None,None

>  <m_Rgroups>  (228)
H,OH,None,None

>  <m_attachmentPointIdx>  (228)
0,2,None,None

>  <natAnalog>  (228)
G

$$$$

     RDKit          2D

 13 12  0  0  0  0  0  0  0  0999 V2000
    9.0933    0.7500    0.0000 C   0  0  0  0  0  0  0  0  0  0  0  0
    7.7942   -0.0000    0.0000 C   0  0  0  0  0  0  0  0  0  0  0  0
    7.7942   -1.5000    0.0000 C   0  0  0  0  0  0  0  0  0  0  0  0
    6.4952    0.7500    0.0000 O   0  0  0  0  0  0  0  0  0  0  0  0
    5.1962   -0.0000    0.0000 C   0  0  0  0  0  0  0  0  0  0  0  0
    3.8971    0.7500    0.0000 C   0  0  0  0  0  0  0  0  0  0  0  0
    2.5981   -0.0000    0.0000 C   0  0  0  0  0  0  0  0  0  0  0  0
    1.2990    0.7500    0.0000 N   0  0  0  0  0  0  0  0  0  0  0  0
    1.2990    2.2500    0.0000 C   0  0  0  0  0  0  0  0  0  0  0  0
    2.5981    3.0000    0.0000 C   0  0  0  0  0  0  0  0  0  0  0  0
    3.8971    2.2500    0.0000 O   0  0  0  0  0  0  0  0  0  0  0  0
    0.0000    0.0000    0.0000 R#  0  0  0  0  0  0  0  0  0  0  0  0
    2.5981    4.5000    0.0000 R#  0  0  0  0  0  0  0  0  0  0  0  0
  1  2  1  0
  2  3  1  0
  2  4  1  0
  4  5  1  0
  5  6  1  0
  6  7  1  0
  7  8  1  0
  8 12  1  0
  8  9  1  0
  9 10  1  0
 10 13  1  0
 10 11  2  0
M  RGP  2  12   1  13   2
V   12 *
V   13 *
M  END
>  <symbol>  (229)
Mono34

>  <m_abbr>  (229)
Mono34

>  <m_type>  (229)
aa

>  <m_subtype>  (229)
non-natural

>  <m_RgroupIdx>  (229)
11,12,None,None

>  <m_Rgroups>  (229)
H,OH,None,None

>  <m_attachmentPointIdx>  (229)
7,9,None,None

>  <natAnalog>  (229)
G

$$$$

     RDKit          2D

 26 28  0  0  0  0  0  0  0  0999 V2000
    3.6172   -9.8037    0.0000 C   0  0  0  0  0  0  0  0  0  0  0  0
    4.8308   -8.9221    0.0000 C   0  0  0  0  0  0  0  0  0  0  0  0
    4.6740   -7.4303    0.0000 C   0  0  0  0  0  0  0  0  0  0  0  0
    3.3037   -6.8202    0.0000 C   0  0  0  0  0  0  0  0  0  0  0  0
    2.0046   -7.5702    0.0000 N   0  0  0  0  0  0  0  0  0  0  0  0
    0.8899   -6.5665    0.0000 N   0  0  0  0  0  0  0  0  0  0  0  0
    1.5000   -5.1962    0.0000 C   0  0  0  0  0  0  0  0  0  0  0  0
    0.7500   -3.8971    0.0000 C   0  0  0  0  0  0  0  0  0  0  0  0
    1.5000   -2.5981    0.0000 C   0  0  0  0  0  0  0  0  0  0  0  0
    0.7500   -1.2990    0.0000 C   0  0  0  0  0  0  0  0  0  0  0  0
    1.5000    0.0000    0.0000 C   0  0  0  0  0  0  0  0  0  0  0  0
    0.7500    1.2990    0.0000 C   0  0  0  0  0  0  0  0  0  0  0  0
   -0.7500    1.2990    0.0000 C   0  0  0  0  0  0  0  0  0  0  0  0
   -1.5000    0.0000    0.0000 C   0  0  0  0  0  0  0  0  0  0  0  0
   -0.7500   -1.2990    0.0000 C   0  0  0  0  0  0  0  0  0  0  0  0
   -0.7500   -3.8971    0.0000 N   0  0  0  0  0  0  0  0  0  0  0  0
    2.9918   -5.3529    0.0000 O   0  0  0  0  0  0  0  0  0  0  0  0
    5.8875   -6.5486    0.0000 N   0  0  0  0  0  0  0  0  0  0  0  0
    5.8875   -5.0486    0.0000 C   0  0  0  0  0  0  0  0  0  0  0  0
    7.3141   -4.5851    0.0000 C   0  0  0  0  0  0  0  0  0  0  0  0
    8.1958   -5.7986    0.0000 C   0  0  0  0  0  0  0  0  0  0  0  0
    7.3141   -7.0121    0.0000 C   0  0  0  0  0  0  0  0  0  0  0  0
    7.7776   -8.4387    0.0000 C   0  0  0  0  0  0  0  0  0  0  0  0
    9.2448   -8.7506    0.0000 O   0  0  0  0  0  0  0  0  0  0  0  0
   -1.5000   -5.1962    0.0000 R#  0  0  0  0  0  0  0  0  0  0  0  0
    6.7739   -9.5534    0.0000 R#  0  0  0  0  0  0  0  0  0  0  0  0
  1  2  1  0
  3  2  1  6
  3  4  1  0
  4  5  2  0
  5  6  1  0
  6  7  2  0
  7  8  1  0
  8  9  1  1
  9 10  1  0
 10 11  2  0
 11 12  1  0
 12 13  2  0
 13 14  1  0
 14 15  2  0
  8 16  1  0
 16 25  1  0
  7 17  1  0
  3 18  1  0
 18 19  1  0
 19 20  1  0
 20 21  1  0
 21 22  1  0
 22 23  1  1
 23 26  1  0
 23 24  2  0
 17  4  1  0
 22 18  1  0
 15 10  1  0
M  RGP  2  25   1  26   2
V   25 *
V   26 *
M  END
>  <symbol>  (230)
Mono35

>  <m_abbr>  (230)
Mono35

>  <m_type>  (230)
aa

>  <m_subtype>  (230)
non-natural

>  <m_RgroupIdx>  (230)
24,25,None,None

>  <m_Rgroups>  (230)
H,OH,None,None

>  <m_attachmentPointIdx>  (230)
15,22,None,None

>  <natAnalog>  (230)
X

$$$$

     RDKit          2D

 31 34  0  0  0  0  0  0  0  0999 V2000
   -0.7500   -3.8971    0.0000 N   0  0  0  0  0  0  0  0  0  0  0  0
    0.7500   -3.8971    0.0000 C   0  0  0  0  0  0  0  0  0  0  0  0
    1.5000   -2.5981    0.0000 C   0  0  0  0  0  0  0  0  0  0  0  0
    0.7500   -1.2990    0.0000 C   0  0  0  0  0  0  0  0  0  0  0  0
    1.5000    0.0000    0.0000 C   0  0  0  0  0  0  0  0  0  0  0  0
    0.7500    1.2990    0.0000 C   0  0  0  0  0  0  0  0  0  0  0  0
   -0.7500    1.2990    0.0000 C   0  0  0  0  0  0  0  0  0  0  0  0
   -1.5000   -0.0000    0.0000 C   0  0  0  0  0  0  0  0  0  0  0  0
   -0.7500   -1.2990    0.0000 C   0  0  0  0  0  0  0  0  0  0  0  0
    1.5000   -5.1962    0.0000 C   0  0  0  0  0  0  0  0  0  0  0  0
    2.9918   -5.3529    0.0000 N   0  0  0  0  0  0  0  0  0  0  0  0
    3.3037   -6.8202    0.0000 N   0  0  0  0  0  0  0  0  0  0  0  0
    2.0046   -7.5702    0.0000 C   0  0  0  0  0  0  0  0  0  0  0  0
    1.8478   -9.0619    0.0000 C   0  0  0  0  0  0  0  0  0  0  0  0
    0.4775   -9.6721    0.0000 C   0  0  0  0  0  0  0  0  0  0  0  0
    0.3207  -11.1638    0.0000 C   0  0  0  0  0  0  0  0  0  0  0  0
   -1.0496  -11.7739    0.0000 C   0  0  0  0  0  0  0  0  0  0  0  0
   -1.2064  -13.2657    0.0000 C   0  0  0  0  0  0  0  0  0  0  0  0
    0.0071  -14.1474    0.0000 C   0  0  0  0  0  0  0  0  0  0  0  0
    1.3774  -13.5373    0.0000 C   0  0  0  0  0  0  0  0  0  0  0  0
    1.5342  -12.0455    0.0000 C   0  0  0  0  0  0  0  0  0  0  0  0
    3.0613   -9.9436    0.0000 N   0  0  0  0  0  0  0  0  0  0  0  0
    3.0613  -11.4436    0.0000 C   0  0  0  0  0  0  0  0  0  0  0  0
    4.4879  -11.9072    0.0000 C   0  0  0  0  0  0  0  0  0  0  0  0
    5.3696  -10.6936    0.0000 C   0  0  0  0  0  0  0  0  0  0  0  0
    4.4879   -9.4801    0.0000 C   0  0  0  0  0  0  0  0  0  0  0  0
    4.9515   -8.0535    0.0000 C   0  0  0  0  0  0  0  0  0  0  0  0
    6.4187   -7.7416    0.0000 O   0  0  0  0  0  0  0  0  0  0  0  0
    0.8899   -6.5665    0.0000 O   0  0  0  0  0  0  0  0  0  0  0  0
   -1.5000   -5.1962    0.0000 R#  0  0  0  0  0  0  0  0  0  0  0  0
    4.2473   -6.7291    0.0000 R#  0  0  0  0  0  0  0  0  0  0  0  0
 30  1  1  0
  1  2  1  0
  2  3  1  1
  3  4  1  0
  4  5  2  0
  5  6  1  0
  6  7  2  0
  7  8  1  0
  8  9  2  0
  2 10  1  0
 10 11  2  0
 11 12  1  0
 12 13  2  0
 13 14  1  0
 14 15  1  6
 15 16  1  0
 16 17  2  0
 17 18  1  0
 18 19  2  0
 19 20  1  0
 20 21  2  0
 14 22  1  0
 22 23  1  0
 23 24  1  0
 24 25  1  0
 25 26  1  0
 26 27  1  6
 27 31  1  0
 27 28  2  0
 13 29  1  0
  9  4  1  0
 29 10  1  0
 21 16  1  0
 26 22  1  0
M  RGP  2  30   1  31   2
V   30 *
V   31 *
M  END
>  <symbol>  (231)
Mono36

>  <m_abbr>  (231)
Mono36

>  <m_type>  (231)
aa

>  <m_subtype>  (231)
non-natural

>  <m_RgroupIdx>  (231)
29,30,None,None

>  <m_Rgroups>  (231)
H,OH,None,None

>  <m_attachmentPointIdx>  (231)
0,26,None,None

>  <natAnalog>  (231)
X

$$$$

     RDKit          2D

 28 30  0  0  0  0  0  0  0  0999 V2000
    8.4713   -6.2770    0.0000 C   0  0  0  0  0  0  0  0  0  0  0  0
    7.2578   -7.1587    0.0000 C   0  0  0  0  0  0  0  0  0  0  0  0
    7.4146   -8.6505    0.0000 C   0  0  0  0  0  0  0  0  0  0  0  0
    5.8875   -6.5486    0.0000 C   0  0  0  0  0  0  0  0  0  0  0  0
    4.6740   -7.4303    0.0000 C   0  0  0  0  0  0  0  0  0  0  0  0
    3.3037   -6.8202    0.0000 C   0  0  0  0  0  0  0  0  0  0  0  0
    2.0046   -7.5702    0.0000 N   0  0  0  0  0  0  0  0  0  0  0  0
    0.8899   -6.5665    0.0000 N   0  0  0  0  0  0  0  0  0  0  0  0
    1.5000   -5.1962    0.0000 C   0  0  0  0  0  0  0  0  0  0  0  0
    0.7500   -3.8971    0.0000 C   0  0  0  0  0  0  0  0  0  0  0  0
    1.5000   -2.5981    0.0000 C   0  0  0  0  0  0  0  0  0  0  0  0
    0.7500   -1.2990    0.0000 C   0  0  0  0  0  0  0  0  0  0  0  0
    1.5000    0.0000    0.0000 C   0  0  0  0  0  0  0  0  0  0  0  0
    0.7500    1.2990    0.0000 C   0  0  0  0  0  0  0  0  0  0  0  0
   -0.7500    1.2990    0.0000 C   0  0  0  0  0  0  0  0  0  0  0  0
   -1.5000    0.0000    0.0000 C   0  0  0  0  0  0  0  0  0  0  0  0
   -0.7500   -1.2990    0.0000 C   0  0  0  0  0  0  0  0  0  0  0  0
   -0.7500   -3.8971    0.0000 N   0  0  0  0  0  0  0  0  0  0  0  0
    2.9918   -5.3529    0.0000 O   0  0  0  0  0  0  0  0  0  0  0  0
    4.8308   -8.9221    0.0000 N   0  0  0  0  0  0  0  0  0  0  0  0
    6.1298   -9.6721    0.0000 C   0  0  0  0  0  0  0  0  0  0  0  0
    5.8179  -11.1393    0.0000 C   0  0  0  0  0  0  0  0  0  0  0  0
    4.3261  -11.2961    0.0000 C   0  0  0  0  0  0  0  0  0  0  0  0
    3.7160   -9.9258    0.0000 C   0  0  0  0  0  0  0  0  0  0  0  0
    2.2488   -9.6139    0.0000 C   0  0  0  0  0  0  0  0  0  0  0  0
    1.4539   -8.3419    0.0000 O   0  0  0  0  0  0  0  0  0  0  0  0
   -1.5000   -5.1962    0.0000 R#  0  0  0  0  0  0  0  0  0  0  0  0
    1.2451  -10.7286    0.0000 R#  0  0  0  0  0  0  0  0  0  0  0  0
  1  2  1  0
  2  3  1  0
  2  4  1  0
  5  4  1  1
  5  6  1  0
  6  7  2  0
  7  8  1  0
  8  9  2  0
  9 10  1  0
 10 11  1  1
 11 12  1  0
 12 13  2  0
 13 14  1  0
 14 15  2  0
 15 16  1  0
 16 17  2  0
 10 18  1  0
 18 27  1  0
  9 19  1  0
  5 20  1  0
 20 21  1  0
 21 22  1  0
 22 23  1  0
 23 24  1  0
 24 25  1  1
 25 28  1  0
 25 26  2  0
 19  6  1  0
 24 20  1  0
 17 12  1  0
M  RGP  2  27   1  28   2
V   27 *
V   28 *
M  END
>  <symbol>  (232)
Mono37

>  <m_abbr>  (232)
Mono37

>  <m_type>  (232)
aa

>  <m_subtype>  (232)
non-natural

>  <m_RgroupIdx>  (232)
26,27,None,None

>  <m_Rgroups>  (232)
H,OH,None,None

>  <m_attachmentPointIdx>  (232)
17,24,None,None

>  <natAnalog>  (232)
X

$$$$

     RDKit          2D

 13 13  0  0  0  0  0  0  0  0999 V2000
    3.7500   -1.2990    0.0000 N   0  0  0  0  0  0  0  0  0  0  0  0
    3.0000   -2.5981    0.0000 C   0  0  0  0  0  0  0  0  0  0  0  0
    3.7500   -3.8971    0.0000 C   0  0  0  0  0  0  0  0  0  0  0  0
    5.2500   -3.8971    0.0000 O   0  0  0  0  0  0  0  0  0  0  0  0
    3.0000    0.0000    0.0000 C   0  0  0  0  0  0  0  0  0  0  0  0
    1.5000    0.0000    0.0000 C   0  0  0  0  0  0  0  0  0  0  0  0
    0.7500   -1.2990    0.0000 C   0  0  0  0  0  0  0  0  0  0  0  0
   -0.7500   -1.2990    0.0000 C   0  0  0  0  0  0  0  0  0  0  0  0
   -1.5000    0.0000    0.0000 O   0  0  0  0  0  0  0  0  0  0  0  0
   -0.7500    1.2990    0.0000 C   0  0  0  0  0  0  0  0  0  0  0  0
    0.7500    1.2990    0.0000 C   0  0  0  0  0  0  0  0  0  0  0  0
    5.2500   -1.2990    0.0000 R#  0  0  0  0  0  0  0  0  0  0  0  0
    3.0000   -5.1962    0.0000 R#  0  0  0  0  0  0  0  0  0  0  0  0
 12  1  1  0
  1  2  1  0
  2  3  1  0
  3 13  1  0
  3  4  2  0
  1  5  1  0
  5  6  1  0
  6  7  1  0
  7  8  1  0
  8  9  1  0
  9 10  1  0
 10 11  1  0
 11  6  1  0
M  RGP  2  12   1  13   2
V   12 *
V   13 *
M  END
>  <symbol>  (233)
Mono38

>  <m_abbr>  (233)
Mono38

>  <m_type>  (233)
aa

>  <m_subtype>  (233)
non-natural

>  <m_RgroupIdx>  (233)
11,12,None,None

>  <m_Rgroups>  (233)
H,OH,None,None

>  <m_attachmentPointIdx>  (233)
0,2,None,None

>  <natAnalog>  (233)
G

$$$$

     RDKit          2D

 15 15  0  0  0  0  0  0  0  0999 V2000
    6.0000   -2.5981    0.0000 N   0  0  0  0  0  0  0  0  0  0  0  0
    5.2500   -1.2990    0.0000 C   0  0  0  0  0  0  0  0  0  0  0  0
    3.7500   -1.2990    0.0000 C   0  0  0  0  0  0  0  0  0  0  0  0
    3.0000    0.0000    0.0000 O   0  0  0  0  0  0  0  0  0  0  0  0
    1.5000    0.0000    0.0000 C   0  0  0  0  0  0  0  0  0  0  0  0
    0.7500   -1.2990    0.0000 C   0  0  0  0  0  0  0  0  0  0  0  0
   -0.7500   -1.2990    0.0000 C   0  0  0  0  0  0  0  0  0  0  0  0
   -1.5000    0.0000    0.0000 C   0  0  0  0  0  0  0  0  0  0  0  0
   -0.7500    1.2990    0.0000 C   0  0  0  0  0  0  0  0  0  0  0  0
    0.7500    1.2990    0.0000 C   0  0  0  0  0  0  0  0  0  0  0  0
    5.2500   -3.8971    0.0000 C   0  0  0  0  0  0  0  0  0  0  0  0
    6.0000   -5.1962    0.0000 C   0  0  0  0  0  0  0  0  0  0  0  0
    7.5000   -5.1962    0.0000 O   0  0  0  0  0  0  0  0  0  0  0  0
    7.5000   -2.5981    0.0000 R#  0  0  0  0  0  0  0  0  0  0  0  0
    5.2500   -6.4952    0.0000 R#  0  0  0  0  0  0  0  0  0  0  0  0
 14  1  1  0
  1  2  1  0
  2  3  1  0
  3  4  1  0
  4  5  1  0
  5  6  2  0
  6  7  1  0
  7  8  2  0
  8  9  1  0
  9 10  2  0
  1 11  1  0
 11 12  1  0
 12 15  1  0
 12 13  2  0
 10  5  1  0
M  RGP  2  14   1  15   2
V   14 *
V   15 *
M  END
>  <symbol>  (234)
Mono39

>  <m_abbr>  (234)
Mono39

>  <m_type>  (234)
aa

>  <m_subtype>  (234)
non-natural

>  <m_RgroupIdx>  (234)
13,14,None,None

>  <m_Rgroups>  (234)
H,OH,None,None

>  <m_attachmentPointIdx>  (234)
0,11,None,None

>  <natAnalog>  (234)
G

$$$$

     RDKit          2D

 15 15  0  0  0  0  0  0  0  0999 V2000
    2.7760    0.0000    0.0000 C   0  0  0  0  0  0  0  0  0  0  0  0
    1.2760    0.0000    0.0000 N   0  0  0  0  0  0  0  0  0  0  0  0
    0.3943    1.2135    0.0000 C   0  0  0  0  0  0  0  0  0  0  0  0
   -1.0323    0.7500    0.0000 C   0  0  0  0  0  0  0  0  0  0  0  0
   -2.2458    1.6317    0.0000 C   0  0  0  0  0  0  0  0  0  0  0  0
   -2.0890    3.1235    0.0000 C   0  0  0  0  0  0  0  0  0  0  0  0
   -3.3025    4.0051    0.0000 C   0  0  0  0  0  0  0  0  0  0  0  0
   -3.1458    5.4969    0.0000 N   0  0  0  0  0  0  0  0  0  0  0  0
   -1.7754    6.1070    0.0000 C   0  0  0  0  0  0  0  0  0  0  0  0
   -1.6186    7.5988    0.0000 C   0  0  0  0  0  0  0  0  0  0  0  0
   -2.8322    8.4805    0.0000 O   0  0  0  0  0  0  0  0  0  0  0  0
   -1.0323   -0.7500    0.0000 C   0  0  0  0  0  0  0  0  0  0  0  0
    0.3943   -1.2135    0.0000 N   0  0  0  0  0  0  0  0  0  0  0  0
   -4.3593    6.3786    0.0000 R#  0  0  0  0  0  0  0  0  0  0  0  0
   -0.2483    8.2089    0.0000 R#  0  0  0  0  0  0  0  0  0  0  0  0
  1  2  1  0
  2  3  1  0
  3  4  2  0
  4  5  1  0
  5  6  1  0
  6  7  1  0
  7  8  1  0
  8 14  1  0
  8  9  1  0
  9 10  1  0
 10 15  1  0
 10 11  2  0
  4 12  1  0
 12 13  2  0
 13  2  1  0
M  RGP  2  14   1  15   2
V   14 *
V   15 *
M  END
>  <symbol>  (235)
Mono40

>  <m_abbr>  (235)
Mono40

>  <m_type>  (235)
aa

>  <m_subtype>  (235)
non-natural

>  <m_RgroupIdx>  (235)
13,14,None,None

>  <m_Rgroups>  (235)
H,OH,None,None

>  <m_attachmentPointIdx>  (235)
7,9,None,None

>  <natAnalog>  (235)
G

$$$$

     RDKit          2D

 15 15  0  0  0  0  0  0  0  0999 V2000
    5.7760    2.5981    0.0000 N   0  0  0  0  0  0  0  0  0  0  0  0
    5.0260    1.2990    0.0000 C   0  0  0  0  0  0  0  0  0  0  0  0
    3.5260    1.2990    0.0000 C   0  0  0  0  0  0  0  0  0  0  0  0
    2.7760    0.0000    0.0000 C   0  0  0  0  0  0  0  0  0  0  0  0
    1.2760    0.0000    0.0000 N   0  0  0  0  0  0  0  0  0  0  0  0
    0.3943    1.2135    0.0000 C   0  0  0  0  0  0  0  0  0  0  0  0
   -1.0323    0.7500    0.0000 C   0  0  0  0  0  0  0  0  0  0  0  0
   -1.0323   -0.7500    0.0000 C   0  0  0  0  0  0  0  0  0  0  0  0
    0.3943   -1.2135    0.0000 C   0  0  0  0  0  0  0  0  0  0  0  0
    0.8578   -2.6401    0.0000 O   0  0  0  0  0  0  0  0  0  0  0  0
    5.0260    3.8971    0.0000 C   0  0  0  0  0  0  0  0  0  0  0  0
    5.7760    5.1962    0.0000 C   0  0  0  0  0  0  0  0  0  0  0  0
    7.2760    5.1962    0.0000 O   0  0  0  0  0  0  0  0  0  0  0  0
    7.2760    2.5981    0.0000 R#  0  0  0  0  0  0  0  0  0  0  0  0
    5.0260    6.4952    0.0000 R#  0  0  0  0  0  0  0  0  0  0  0  0
 14  1  1  0
  1  2  1  0
  2  3  1  0
  3  4  1  0
  4  5  1  0
  5  6  1  0
  6  7  1  0
  7  8  1  0
  8  9  1  0
  9 10  2  0
  1 11  1  0
 11 12  1  0
 12 15  1  0
 12 13  2  0
  9  5  1  0
M  RGP  2  14   1  15   2
V   14 *
V   15 *
M  END
>  <symbol>  (236)
Mono41

>  <m_abbr>  (236)
Mono41

>  <m_type>  (236)
aa

>  <m_subtype>  (236)
non-natural

>  <m_RgroupIdx>  (236)
13,14,None,None

>  <m_Rgroups>  (236)
H,OH,None,None

>  <m_attachmentPointIdx>  (236)
0,11,None,None

>  <natAnalog>  (236)
G

$$$$

     RDKit          2D

 14 14  0  0  0  0  0  0  0  0999 V2000
    5.2500   -1.2990    0.0000 N   0  0  0  0  0  0  0  0  0  0  0  0
    3.7500   -1.2990    0.0000 C   0  0  0  0  0  0  0  0  0  0  0  0
    3.0000    0.0000    0.0000 C   0  0  0  0  0  0  0  0  0  0  0  0
    1.5000    0.0000    0.0000 N   0  0  0  0  0  0  0  0  0  0  0  0
    0.7500   -1.2990    0.0000 C   0  0  0  0  0  0  0  0  0  0  0  0
   -0.7500   -1.2990    0.0000 C   0  0  0  0  0  0  0  0  0  0  0  0
   -1.5000    0.0000    0.0000 O   0  0  0  0  0  0  0  0  0  0  0  0
   -0.7500    1.2990    0.0000 C   0  0  0  0  0  0  0  0  0  0  0  0
    0.7500    1.2990    0.0000 C   0  0  0  0  0  0  0  0  0  0  0  0
    6.0000    0.0000    0.0000 C   0  0  0  0  0  0  0  0  0  0  0  0
    7.5000    0.0000    0.0000 C   0  0  0  0  0  0  0  0  0  0  0  0
    8.2500   -1.2990    0.0000 O   0  0  0  0  0  0  0  0  0  0  0  0
    6.0000   -2.5981    0.0000 R#  0  0  0  0  0  0  0  0  0  0  0  0
    8.2500    1.2990    0.0000 R#  0  0  0  0  0  0  0  0  0  0  0  0
 13  1  1  0
  1  2  1  0
  2  3  1  0
  3  4  1  0
  4  5  1  0
  5  6  1  0
  6  7  1  0
  7  8  1  0
  8  9  1  0
  1 10  1  0
 10 11  1  0
 11 14  1  0
 11 12  2  0
  9  4  1  0
M  RGP  2  13   1  14   2
V   13 *
V   14 *
M  END
>  <m_name>  (237)
n-(2-morpholinoethyl)glycine

>  <symbol>  (237)
Mono42

>  <m_abbr>  (237)
Mono42

>  <m_type>  (237)
aa

>  <m_subtype>  (237)
non-natural

>  <m_RgroupIdx>  (237)
12,13,None,None

>  <m_Rgroups>  (237)
H,OH,None,None

>  <m_attachmentPointIdx>  (237)
0,10,None,None

>  <natAnalog>  (237)
G

$$$$

     RDKit          2D

 16 16  0  0  0  0  0  0  0  0999 V2000
    7.5000   -2.5981    0.0000 N   0  0  0  0  0  0  0  0  0  0  0  0
    6.0000   -2.5981    0.0000 C   0  0  0  0  0  0  0  0  0  0  0  0
    5.2500   -1.2990    0.0000 C   0  0  0  0  0  0  0  0  0  0  0  0
    3.7500   -1.2990    0.0000 C   0  0  0  0  0  0  0  0  0  0  0  0
    3.0000    0.0000    0.0000 C   0  0  0  0  0  0  0  0  0  0  0  0
    1.5000    0.0000    0.0000 C   0  0  0  0  0  0  0  0  0  0  0  0
    0.7500   -1.2990    0.0000 C   0  0  0  0  0  0  0  0  0  0  0  0
   -0.7500   -1.2990    0.0000 C   0  0  0  0  0  0  0  0  0  0  0  0
   -1.5000    0.0000    0.0000 C   0  0  0  0  0  0  0  0  0  0  0  0
   -0.7500    1.2990    0.0000 C   0  0  0  0  0  0  0  0  0  0  0  0
    0.7500    1.2990    0.0000 C   0  0  0  0  0  0  0  0  0  0  0  0
    8.2500   -1.2990    0.0000 C   0  0  0  0  0  0  0  0  0  0  0  0
    9.7500   -1.2990    0.0000 C   0  0  0  0  0  0  0  0  0  0  0  0
   10.5000   -2.5981    0.0000 O   0  0  0  0  0  0  0  0  0  0  0  0
    8.2500   -3.8971    0.0000 R#  0  0  0  0  0  0  0  0  0  0  0  0
   10.5000    0.0000    0.0000 R#  0  0  0  0  0  0  0  0  0  0  0  0
 15  1  1  0
  1  2  1  0
  2  3  1  0
  3  4  1  0
  4  5  1  0
  5  6  1  0
  6  7  2  0
  7  8  1  0
  8  9  2  0
  9 10  1  0
 10 11  2  0
  1 12  1  0
 12 13  1  0
 13 16  1  0
 13 14  2  0
 11  6  1  0
M  RGP  2  15   1  16   2
V   15 *
V   16 *
M  END
>  <symbol>  (238)
Mono43

>  <m_abbr>  (238)
Mono43

>  <m_type>  (238)
aa

>  <m_subtype>  (238)
non-natural

>  <m_RgroupIdx>  (238)
14,15,None,None

>  <m_Rgroups>  (238)
H,OH,None,None

>  <m_attachmentPointIdx>  (238)
0,12,None,None

>  <natAnalog>  (238)
G

$$$$

     RDKit          2D

 16 16  0  0  0  0  0  0  0  0999 V2000
    5.0260   -1.2990    0.0000 C   0  0  0  0  0  0  0  0  0  0  0  0
    3.5260   -1.2990    0.0000 C   0  0  0  0  0  0  0  0  0  0  0  0
    2.7760   -2.5981    0.0000 C   0  0  0  0  0  0  0  0  0  0  0  0
    2.7760    0.0000    0.0000 C   0  0  0  0  0  0  0  0  0  0  0  0
    1.2760    0.0000    0.0000 C   0  0  0  0  0  0  0  0  0  0  0  0
    0.3943    1.2135    0.0000 C   0  0  0  0  0  0  0  0  0  0  0  0
   -1.0323    0.7500    0.0000 C   0  0  0  0  0  0  0  0  0  0  0  0
   -2.2458    1.6317    0.0000 C   0  0  0  0  0  0  0  0  0  0  0  0
   -2.0890    3.1235    0.0000 N   0  0  0  0  0  0  0  0  0  0  0  0
   -0.7187    3.7336    0.0000 C   0  0  0  0  0  0  0  0  0  0  0  0
   -0.5619    5.2253    0.0000 C   0  0  0  0  0  0  0  0  0  0  0  0
   -1.7754    6.1070    0.0000 O   0  0  0  0  0  0  0  0  0  0  0  0
   -1.0323   -0.7500    0.0000 N   0  0  0  0  0  0  0  0  0  0  0  0
    0.3943   -1.2135    0.0000 O   0  0  0  0  0  0  0  0  0  0  0  0
   -3.3025    4.0051    0.0000 R#  0  0  0  0  0  0  0  0  0  0  0  0
    0.8084    5.8355    0.0000 R#  0  0  0  0  0  0  0  0  0  0  0  0
  1  2  1  0
  2  3  1  0
  2  4  1  0
  4  5  1  0
  5  6  2  0
  6  7  1  0
  7  8  1  0
  8  9  1  0
  9 15  1  0
  9 10  1  0
 10 11  1  0
 11 16  1  0
 11 12  2  0
  7 13  2  0
 13 14  1  0
 14  5  1  0
M  RGP  2  15   1  16   2
V   15 *
V   16 *
M  END
>  <symbol>  (239)
Mono44

>  <m_abbr>  (239)
Mono44

>  <m_type>  (239)
aa

>  <m_subtype>  (239)
non-natural

>  <m_RgroupIdx>  (239)
14,15,None,None

>  <m_Rgroups>  (239)
H,OH,None,None

>  <m_attachmentPointIdx>  (239)
8,10,None,None

>  <natAnalog>  (239)
G

$$$$

     RDKit          2D

 19 20  0  0  0  0  0  0  0  0999 V2000
    3.7500   -1.2990    0.0000 N   0  0  0  0  0  0  0  0  0  0  0  0
    3.0000   -2.5981    0.0000 C   0  0  0  0  0  0  0  0  0  0  0  0
    3.7500   -3.8971    0.0000 C   0  0  0  0  0  0  0  0  0  0  0  0
    5.2500   -3.8971    0.0000 O   0  0  0  0  0  0  0  0  0  0  0  0
    3.0000    0.0000    0.0000 C   0  0  0  0  0  0  0  0  0  0  0  0
    1.5000    0.0000    0.0000 C   0  0  0  0  0  0  0  0  0  0  0  0
    0.7500   -1.2990    0.0000 C   0  0  0  0  0  0  0  0  0  0  0  0
   -0.7500   -1.2990    0.0000 C   0  0  0  0  0  0  0  0  0  0  0  0
   -1.5000    0.0000    0.0000 C   0  0  0  0  0  0  0  0  0  0  0  0
   -0.7500    1.2990    0.0000 C   0  0  0  0  0  0  0  0  0  0  0  0
    0.7500    1.2990    0.0000 C   0  0  0  0  0  0  0  0  0  0  0  0
    1.5000    2.5981    0.0000 C   0  0  0  0  0  0  0  0  0  0  0  0
    0.7500    3.8971    0.0000 N   0  0  0  0  0  0  0  0  0  0  0  0
   -0.7418    4.0539    0.0000 C   0  0  0  0  0  0  0  0  0  0  0  0
   -1.0537    5.5211    0.0000 C   0  0  0  0  0  0  0  0  0  0  0  0
    0.2454    6.2711    0.0000 C   0  0  0  0  0  0  0  0  0  0  0  0
    1.3601    5.2674    0.0000 N   0  0  0  0  0  0  0  0  0  0  0  0
    5.2500   -1.2990    0.0000 R#  0  0  0  0  0  0  0  0  0  0  0  0
    3.0000   -5.1962    0.0000 R#  0  0  0  0  0  0  0  0  0  0  0  0
 18  1  1  0
  1  2  1  0
  2  3  1  0
  3 19  1  0
  3  4  2  0
  1  5  1  0
  5  6  1  0
  6  7  2  0
  7  8  1  0
  8  9  2  0
  9 10  1  0
 10 11  2  0
 11 12  1  0
 12 13  1  0
 13 14  1  0
 14 15  2  0
 15 16  1  0
 16 17  2  0
 11  6  1  0
 17 13  1  0
M  RGP  2  18   1  19   2
V   18 *
V   19 *
M  END
>  <symbol>  (240)
Mono45

>  <m_abbr>  (240)
Mono45

>  <m_type>  (240)
aa

>  <m_subtype>  (240)
non-natural

>  <m_RgroupIdx>  (240)
17,18,None,None

>  <m_Rgroups>  (240)
H,OH,None,None

>  <m_attachmentPointIdx>  (240)
0,2,None,None

>  <natAnalog>  (240)
G

$$$$

     RDKit          2D

 27 28  0  0  0  0  0  0  0  0999 V2000
    5.0490   -8.3433    0.0000 C   0  0  0  0  0  0  0  0  0  0  0  0
    3.7500   -9.0933    0.0000 C   0  0  0  0  0  0  0  0  0  0  0  0
    2.4510   -9.8433    0.0000 C   0  0  0  0  0  0  0  0  0  0  0  0
    4.5000  -10.3923    0.0000 C   0  0  0  0  0  0  0  0  0  0  0  0
    3.0000   -7.7942    0.0000 N   0  0  0  0  0  0  0  0  0  0  0  0
    1.5000   -7.7942    0.0000 C   0  0  0  0  0  0  0  0  0  0  0  0
    0.9725   -9.0369    0.0000 O   0  0  0  0  0  0  0  0  0  0  0  0
    0.7500   -6.4952    0.0000 C   0  0  0  0  0  0  0  0  0  0  0  0
    1.5000   -5.1962    0.0000 C   0  0  0  0  0  0  0  0  0  0  0  0
    0.7500   -3.8971    0.0000 C   0  0  0  0  0  0  0  0  0  0  0  0
    1.5000   -2.5981    0.0000 S   0  0  0  0  0  0  0  0  0  0  0  0
    0.7500   -1.2990    0.0000 C   0  0  0  0  0  0  0  0  0  0  0  0
    1.5000    0.0000    0.0000 C   0  0  0  0  0  0  0  0  0  0  0  0
    0.7500    1.2990    0.0000 C   0  0  0  0  0  0  0  0  0  0  0  0
   -0.7500    1.2990    0.0000 C   0  0  0  0  0  0  0  0  0  0  0  0
   -1.5000    0.0000    0.0000 C   0  0  0  0  0  0  0  0  0  0  0  0
   -0.7500   -1.2990    0.0000 C   0  0  0  0  0  0  0  0  0  0  0  0
    3.0000   -5.1962    0.0000 N   0  0  0  0  0  0  0  0  0  0  0  0
   -0.7500   -6.4952    0.0000 N   0  0  0  0  0  0  0  0  0  0  0  0
   -1.6317   -5.2817    0.0000 C   0  0  0  0  0  0  0  0  0  0  0  0
   -3.0583   -5.7452    0.0000 C   0  0  0  0  0  0  0  0  0  0  0  0
   -3.0583   -7.2452    0.0000 C   0  0  0  0  0  0  0  0  0  0  0  0
   -1.6317   -7.7087    0.0000 C   0  0  0  0  0  0  0  0  0  0  0  0
   -1.1682   -9.1353    0.0000 C   0  0  0  0  0  0  0  0  0  0  0  0
   -2.1718  -10.2500    0.0000 O   0  0  0  0  0  0  0  0  0  0  0  0
    3.7500   -6.4952    0.0000 R#  0  0  0  0  0  0  0  0  0  0  0  0
    0.1083   -9.5749    0.0000 R#  0  0  0  0  0  0  0  0  0  0  0  0
  1  2  1  0
  2  3  1  0
  2  4  1  0
  2  5  1  0
  5  6  1  0
  6  7  2  0
  6  8  1  0
  8  9  1  0
  9 10  1  6
 10 11  1  0
 11 12  1  0
 12 13  2  0
 13 14  1  0
 14 15  2  0
 15 16  1  0
 16 17  2  0
  9 18  1  0
 18 26  1  0
  8 19  1  1
 19 20  1  0
 20 21  1  0
 21 22  1  0
 22 23  1  0
 23 24  1  6
 24 27  1  0
 24 25  2  0
 17 12  1  0
 23 19  1  0
M  RGP  2  26   1  27   2
V   26 *
V   27 *
M  END
>  <symbol>  (241)
Mono46

>  <m_abbr>  (241)
Mono46

>  <m_type>  (241)
aa

>  <m_subtype>  (241)
non-natural

>  <m_RgroupIdx>  (241)
25,26,None,None

>  <m_Rgroups>  (241)
H,OH,None,None

>  <m_attachmentPointIdx>  (241)
17,23,None,None

>  <natAnalog>  (241)
P

$$$$

     RDKit          2D

 20 21  0  0  0  0  0  0  0  0999 V2000
    0.4287    7.2998    0.0000 C   0  0  0  0  0  0  0  0  0  0  0  0
   -0.6860    6.2961    0.0000 C   0  0  0  0  0  0  0  0  0  0  0  0
   -1.8008    5.2924    0.0000 C   0  0  0  0  0  0  0  0  0  0  0  0
   -1.6897    7.4108    0.0000 C   0  0  0  0  0  0  0  0  0  0  0  0
    0.3177    5.1814    0.0000 N   0  0  0  0  0  0  0  0  0  0  0  0
   -0.1459    3.7548    0.0000 C   0  0  0  0  0  0  0  0  0  0  0  0
   -1.6131    3.4430    0.0000 O   0  0  0  0  0  0  0  0  0  0  0  0
    0.8578    2.6401    0.0000 C   0  0  0  0  0  0  0  0  0  0  0  0
    2.3250    2.9520    0.0000 C   0  0  0  0  0  0  0  0  0  0  0  0
    3.4398    3.9557    0.0000 C   0  0  0  0  0  0  0  0  0  0  0  0
    3.7516    2.4885    0.0000 N   0  0  0  0  0  0  0  0  0  0  0  0
    0.3943    1.2135    0.0000 N   0  0  0  0  0  0  0  0  0  0  0  0
   -1.0323    0.7500    0.0000 C   0  0  0  0  0  0  0  0  0  0  0  0
   -1.0323   -0.7500    0.0000 C   0  0  0  0  0  0  0  0  0  0  0  0
    0.3943   -1.2135    0.0000 C   0  0  0  0  0  0  0  0  0  0  0  0
    1.2760    0.0000    0.0000 C   0  0  0  0  0  0  0  0  0  0  0  0
    2.7760    0.0000    0.0000 C   0  0  0  0  0  0  0  0  0  0  0  0
    3.5260   -1.2990    0.0000 O   0  0  0  0  0  0  0  0  0  0  0  0
    4.7553    1.3737    0.0000 R#  0  0  0  0  0  0  0  0  0  0  0  0
    3.5260    1.2990    0.0000 R#  0  0  0  0  0  0  0  0  0  0  0  0
  1  2  1  0
  2  3  1  0
  2  4  1  0
  2  5  1  0
  5  6  1  0
  6  7  2  0
  6  8  1  0
  8  9  1  0
  9 10  1  6
 10 11  1  0
 11 19  1  0
  8 12  1  6
 12 13  1  0
 13 14  1  0
 14 15  1  0
 15 16  1  0
 16 17  1  6
 17 20  1  0
 17 18  2  0
 11  9  1  0
 16 12  1  0
M  RGP  2  19   1  20   2
V   19 *
V   20 *
M  END
>  <symbol>  (242)
Mono47

>  <m_abbr>  (242)
Mono47

>  <m_type>  (242)
aa

>  <m_subtype>  (242)
non-natural

>  <m_RgroupIdx>  (242)
18,19,None,None

>  <m_Rgroups>  (242)
H,OH,None,None

>  <m_attachmentPointIdx>  (242)
10,16,None,None

>  <natAnalog>  (242)
P

$$$$

     RDKit          2D

 17 17  0  0  0  0  0  0  0  0999 V2000
    6.0000   -2.5981    0.0000 N   0  0  0  0  0  0  0  0  0  0  0  0
    5.2500   -1.2990    0.0000 C   0  0  0  0  0  0  0  0  0  0  0  0
    3.7500   -1.2990    0.0000 C   0  0  0  0  0  0  0  0  0  0  0  0
    3.0000    0.0000    0.0000 C   0  0  0  0  0  0  0  0  0  0  0  0
    1.5000    0.0000    0.0000 C   0  0  0  0  0  0  0  0  0  0  0  0
    0.7500   -1.2990    0.0000 C   0  0  0  0  0  0  0  0  0  0  0  0
   -0.7500   -1.2990    0.0000 C   0  0  0  0  0  0  0  0  0  0  0  0
   -1.5000    0.0000    0.0000 C   0  0  0  0  0  0  0  0  0  0  0  0
   -3.0000    0.0000    0.0000 F   0  0  0  0  0  0  0  0  0  0  0  0
   -0.7500    1.2990    0.0000 C   0  0  0  0  0  0  0  0  0  0  0  0
    0.7500    1.2990    0.0000 C   0  0  0  0  0  0  0  0  0  0  0  0
    1.5000    2.5981    0.0000 F   0  0  0  0  0  0  0  0  0  0  0  0
    5.2500   -3.8971    0.0000 C   0  0  0  0  0  0  0  0  0  0  0  0
    6.0000   -5.1962    0.0000 C   0  0  0  0  0  0  0  0  0  0  0  0
    7.5000   -5.1962    0.0000 O   0  0  0  0  0  0  0  0  0  0  0  0
    7.5000   -2.5981    0.0000 R#  0  0  0  0  0  0  0  0  0  0  0  0
    5.2500   -6.4952    0.0000 R#  0  0  0  0  0  0  0  0  0  0  0  0
 16  1  1  0
  1  2  1  0
  2  3  1  0
  3  4  1  0
  4  5  1  0
  5  6  2  0
  6  7  1  0
  7  8  2  0
  8  9  1  0
  8 10  1  0
 10 11  2  0
 11 12  1  0
  1 13  1  0
 13 14  1  0
 14 17  1  0
 14 15  2  0
 11  5  1  0
M  RGP  2  16   1  17   2
V   16 *
V   17 *
M  END
>  <symbol>  (243)
Mono48

>  <m_abbr>  (243)
Mono48

>  <m_type>  (243)
aa

>  <m_subtype>  (243)
non-natural

>  <m_RgroupIdx>  (243)
15,16,None,None

>  <m_Rgroups>  (243)
H,OH,None,None

>  <m_attachmentPointIdx>  (243)
0,13,None,None

>  <natAnalog>  (243)
X

$$$$

     RDKit          2D

 16 16  0  0  0  0  0  0  0  0999 V2000
    5.2500   -3.8971    0.0000 N   0  0  0  0  0  0  0  0  0  0  0  0
    6.0000   -2.5981    0.0000 C   0  0  0  0  0  0  0  0  0  0  0  0
    5.2500   -1.2990    0.0000 C   0  0  0  0  0  0  0  0  0  0  0  0
    3.7500   -1.2990    0.0000 O   0  0  0  0  0  0  0  0  0  0  0  0
    3.0000    0.0000    0.0000 C   0  0  0  0  0  0  0  0  0  0  0  0
    1.5000    0.0000    0.0000 C   0  0  0  0  0  0  0  0  0  0  0  0
    0.7500   -1.2990    0.0000 C   0  0  0  0  0  0  0  0  0  0  0  0
   -0.7500   -1.2990    0.0000 N   0  0  0  0  0  0  0  0  0  0  0  0
   -1.5000    0.0000    0.0000 C   0  0  0  0  0  0  0  0  0  0  0  0
   -0.7500    1.2990    0.0000 C   0  0  0  0  0  0  0  0  0  0  0  0
   -1.5000    2.5981    0.0000 F   0  0  0  0  0  0  0  0  0  0  0  0
    0.7500    1.2990    0.0000 C   0  0  0  0  0  0  0  0  0  0  0  0
    7.5000   -2.5981    0.0000 C   0  0  0  0  0  0  0  0  0  0  0  0
    8.2500   -1.2990    0.0000 O   0  0  0  0  0  0  0  0  0  0  0  0
    6.0000   -5.1962    0.0000 R#  0  0  0  0  0  0  0  0  0  0  0  0
    8.2500   -3.8971    0.0000 R#  0  0  0  0  0  0  0  0  0  0  0  0
 15  1  1  0
  1  2  1  0
  2  3  1  1
  3  4  1  0
  4  5  1  0
  5  6  1  0
  6  7  2  0
  7  8  1  0
  8  9  2  0
  9 10  1  0
 10 11  1  0
 10 12  2  0
  2 13  1  0
 13 16  1  0
 13 14  2  0
 12  6  1  0
M  RGP  2  15   1  16   2
V   15 *
V   16 *
M  END
>  <symbol>  (244)
Mono49

>  <m_abbr>  (244)
Mono49

>  <m_type>  (244)
aa

>  <m_subtype>  (244)
non-natural

>  <m_RgroupIdx>  (244)
14,15,None,None

>  <m_Rgroups>  (244)
H,OH,None,None

>  <m_attachmentPointIdx>  (244)
0,12,None,None

>  <natAnalog>  (244)
S

$$$$

     RDKit          2D

 15 14  0  0  0  0  0  0  0  0999 V2000
    1.2990    0.7500    0.0000 N   0  0  0  0  0  0  0  0  0  0  0  0
    2.5981   -0.0000    0.0000 C   0  0  0  0  0  0  0  0  0  0  0  0
    3.8971    0.7500    0.0000 C   0  0  0  0  0  0  0  0  0  0  0  0
    5.1962   -0.0000    0.0000 O   0  0  0  0  0  0  0  0  0  0  0  0
    6.4952    0.7500    0.0000 C   0  0  0  0  0  0  0  0  0  0  0  0
    7.7942   -0.0000    0.0000 C   0  0  0  0  0  0  0  0  0  0  0  0
    8.5442    1.2990    0.0000 F   0  0  0  0  0  0  0  0  0  0  0  0
    7.0442   -1.2990    0.0000 F   0  0  0  0  0  0  0  0  0  0  0  0
    9.0933   -0.7500    0.0000 C   0  0  0  0  0  0  0  0  0  0  0  0
    9.0933   -2.2500    0.0000 F   0  0  0  0  0  0  0  0  0  0  0  0
   10.3923   -0.0000    0.0000 F   0  0  0  0  0  0  0  0  0  0  0  0
    2.5981   -1.5000    0.0000 C   0  0  0  0  0  0  0  0  0  0  0  0
    1.2990   -2.2500    0.0000 O   0  0  0  0  0  0  0  0  0  0  0  0
    0.0000    0.0000    0.0000 R#  0  0  0  0  0  0  0  0  0  0  0  0
    3.8971   -2.2500    0.0000 R#  0  0  0  0  0  0  0  0  0  0  0  0
 14  1  1  0
  1  2  1  0
  2  3  1  1
  3  4  1  0
  4  5  1  0
  5  6  1  0
  6  7  1  0
  6  8  1  0
  6  9  1  0
  9 10  1  0
  9 11  1  0
  2 12  1  0
 12 15  1  0
 12 13  2  0
M  RGP  2  14   1  15   2
V   14 *
V   15 *
M  END
>  <symbol>  (245)
Mono50

>  <m_abbr>  (245)
Mono50

>  <m_type>  (245)
aa

>  <m_subtype>  (245)
non-natural

>  <m_RgroupIdx>  (245)
13,14,None,None

>  <m_Rgroups>  (245)
H,OH,None,None

>  <m_attachmentPointIdx>  (245)
0,11,None,None

>  <natAnalog>  (245)
S

$$$$

     RDKit          2D

 17 17  0  0  0  0  0  0  0  0999 V2000
    5.2500    1.2990    0.0000 C   0  0  0  0  0  0  0  0  0  0  0  0
    6.0000    0.0000    0.0000 N   0  0  0  0  0  0  0  0  0  0  0  0
    5.2500   -1.2990    0.0000 C   0  0  0  0  0  0  0  0  0  0  0  0
    3.7500   -1.2990    0.0000 C   0  0  0  0  0  0  0  0  0  0  0  0
    3.0000    0.0000    0.0000 C   0  0  0  0  0  0  0  0  0  0  0  0
    1.5000    0.0000    0.0000 C   0  0  0  0  0  0  0  0  0  0  0  0
    0.7500   -1.2990    0.0000 C   0  0  0  0  0  0  0  0  0  0  0  0
   -0.7500   -1.2990    0.0000 C   0  0  0  0  0  0  0  0  0  0  0  0
   -1.5000    0.0000    0.0000 C   0  0  0  0  0  0  0  0  0  0  0  0
   -0.7500    1.2990    0.0000 C   0  0  0  0  0  0  0  0  0  0  0  0
   -2.1595    1.8121    0.0000 F   0  0  0  0  0  0  0  0  0  0  0  0
   -0.4895    2.7762    0.0000 F   0  0  0  0  0  0  0  0  0  0  0  0
    0.7500    1.2990    0.0000 C   0  0  0  0  0  0  0  0  0  0  0  0
    6.0000   -2.5981    0.0000 C   0  0  0  0  0  0  0  0  0  0  0  0
    5.2500   -3.8971    0.0000 O   0  0  0  0  0  0  0  0  0  0  0  0
    7.5000    0.0000    0.0000 R#  0  0  0  0  0  0  0  0  0  0  0  0
    7.5000   -2.5981    0.0000 R#  0  0  0  0  0  0  0  0  0  0  0  0
  1  2  1  0
  2 16  1  0
  2  3  1  0
  3  4  1  6
  4  5  1  0
  5  6  1  0
  6  7  1  0
  7  8  1  0
  8  9  1  0
  9 10  1  0
 10 11  1  0
 10 12  1  0
 10 13  1  0
  3 14  1  0
 14 17  1  0
 14 15  2  0
 13  6  1  0
M  RGP  2  16   1  17   2
V   16 *
V   17 *
M  END
>  <symbol>  (246)
Mono51

>  <m_abbr>  (246)
Mono51

>  <m_type>  (246)
aa

>  <m_subtype>  (246)
non-natural

>  <m_RgroupIdx>  (246)
15,16,None,None

>  <m_Rgroups>  (246)
H,OH,None,None

>  <m_attachmentPointIdx>  (246)
1,13,None,None

>  <natAnalog>  (246)
X

$$$$

     RDKit          2D

 17 17  0  0  0  0  0  0  0  0999 V2000
    5.2500    1.2990    0.0000 C   0  0  0  0  0  0  0  0  0  0  0  0
    6.0000    0.0000    0.0000 N   0  0  0  0  0  0  0  0  0  0  0  0
    5.2500   -1.2990    0.0000 C   0  0  0  0  0  0  0  0  0  0  0  0
    3.7500   -1.2990    0.0000 C   0  0  0  0  0  0  0  0  0  0  0  0
    3.0000    0.0000    0.0000 C   0  0  0  0  0  0  0  0  0  0  0  0
    1.5000    0.0000    0.0000 C   0  0  0  0  0  0  0  0  0  0  0  0
    0.7500   -1.2990    0.0000 C   0  0  0  0  0  0  0  0  0  0  0  0
   -0.7500   -1.2990    0.0000 C   0  0  0  0  0  0  0  0  0  0  0  0
   -1.5000    0.0000    0.0000 C   0  0  0  0  0  0  0  0  0  0  0  0
   -2.6491   -0.9642    0.0000 F   0  0  0  0  0  0  0  0  0  0  0  0
   -2.6491    0.9642    0.0000 F   0  0  0  0  0  0  0  0  0  0  0  0
   -0.7500    1.2990    0.0000 C   0  0  0  0  0  0  0  0  0  0  0  0
    0.7500    1.2990    0.0000 C   0  0  0  0  0  0  0  0  0  0  0  0
    6.0000   -2.5981    0.0000 C   0  0  0  0  0  0  0  0  0  0  0  0
    5.2500   -3.8971    0.0000 O   0  0  0  0  0  0  0  0  0  0  0  0
    7.5000    0.0000    0.0000 R#  0  0  0  0  0  0  0  0  0  0  0  0
    7.5000   -2.5981    0.0000 R#  0  0  0  0  0  0  0  0  0  0  0  0
  1  2  1  0
  2 16  1  0
  2  3  1  0
  3  4  1  6
  4  5  1  0
  5  6  1  0
  6  7  1  0
  7  8  1  0
  8  9  1  0
  9 10  1  0
  9 11  1  0
  9 12  1  0
 12 13  1  0
  3 14  1  0
 14 17  1  0
 14 15  2  0
 13  6  1  0
M  RGP  2  16   1  17   2
V   16 *
V   17 *
M  END
>  <symbol>  (247)
Mono52

>  <m_abbr>  (247)
Mono52

>  <m_type>  (247)
aa

>  <m_subtype>  (247)
non-natural

>  <m_RgroupIdx>  (247)
15,16,None,None

>  <m_Rgroups>  (247)
H,OH,None,None

>  <m_attachmentPointIdx>  (247)
1,13,None,None

>  <natAnalog>  (247)
X

$$$$

     RDKit          2D

 16 16  0  0  0  0  0  0  0  0999 V2000
    3.7500   -1.2990    0.0000 C   0  0  0  0  0  0  0  0  0  0  0  0
    3.0000    0.0000    0.0000 N   0  0  0  0  0  0  0  0  0  0  0  0
    3.7500    1.2990    0.0000 C   0  0  0  0  0  0  0  0  0  0  0  0
    1.5000    0.0000    0.0000 C   0  0  0  0  0  0  0  0  0  0  0  0
    0.7500   -1.2990    0.0000 C   0  0  0  0  0  0  0  0  0  0  0  0
   -0.7500   -1.2990    0.0000 C   0  0  0  0  0  0  0  0  0  0  0  0
   -1.5000    0.0000    0.0000 C   0  0  0  0  0  0  0  0  0  0  0  0
   -3.0000    0.0000    0.0000 C   0  0  0  0  0  0  0  0  0  0  0  0
   -3.7500    1.2990    0.0000 C   0  0  0  0  0  0  0  0  0  0  0  0
   -3.0000    2.5981    0.0000 N   0  0  0  0  0  0  0  0  0  0  0  0
   -5.2500    1.2990    0.0000 C   0  0  0  0  0  0  0  0  0  0  0  0
   -6.0000   -0.0000    0.0000 O   0  0  0  0  0  0  0  0  0  0  0  0
   -0.7500    1.2990    0.0000 C   0  0  0  0  0  0  0  0  0  0  0  0
    0.7500    1.2990    0.0000 N   0  0  0  0  0  0  0  0  0  0  0  0
   -3.7500    3.8971    0.0000 R#  0  0  0  0  0  0  0  0  0  0  0  0
   -6.0000    2.5981    0.0000 R#  0  0  0  0  0  0  0  0  0  0  0  0
  1  2  1  0
  2  3  1  0
  2  4  1  0
  4  5  2  0
  5  6  1  0
  6  7  2  0
  7  8  1  0
  9  8  1  1
  9 10  1  0
 10 15  1  0
  9 11  1  0
 11 16  1  0
 11 12  2  0
  7 13  1  0
 13 14  2  0
 14  4  1  0
M  RGP  2  15   1  16   2
V   15 *
V   16 *
M  END
>  <symbol>  (248)
Mono53

>  <m_abbr>  (248)
Mono53

>  <m_type>  (248)
aa

>  <m_subtype>  (248)
non-natural

>  <m_RgroupIdx>  (248)
14,15,None,None

>  <m_Rgroups>  (248)
H,OH,None,None

>  <m_attachmentPointIdx>  (248)
9,10,None,None

>  <natAnalog>  (248)
X

$$$$

     RDKit          2D

 12 11  0  0  0  0  0  0  0  0999 V2000
    9.0933    0.7500    0.0000 C   0  0  0  0  0  0  0  0  0  0  0  0
    7.7942   -0.0000    0.0000 C   0  0  0  0  0  0  0  0  0  0  0  0
    7.7942   -1.5000    0.0000 O   0  0  0  0  0  0  0  0  0  0  0  0
    6.4952    0.7500    0.0000 C   0  0  0  0  0  0  0  0  0  0  0  0
    5.1962   -0.0000    0.0000 O   0  0  0  0  0  0  0  0  0  0  0  0
    3.8971    0.7500    0.0000 C   0  0  0  0  0  0  0  0  0  0  0  0
    2.5981   -0.0000    0.0000 C   0  0  0  0  0  0  0  0  0  0  0  0
    1.2990    0.7500    0.0000 N   0  0  0  0  0  0  0  0  0  0  0  0
    2.5981   -1.5000    0.0000 C   0  0  0  0  0  0  0  0  0  0  0  0
    1.2990   -2.2500    0.0000 O   0  0  0  0  0  0  0  0  0  0  0  0
    0.0000    0.0000    0.0000 R#  0  0  0  0  0  0  0  0  0  0  0  0
    3.8971   -2.2500    0.0000 R#  0  0  0  0  0  0  0  0  0  0  0  0
  2  1  1  6
  2  3  1  0
  2  4  1  0
  4  5  1  0
  5  6  1  0
  7  6  1  1
  7  8  1  0
  8 11  1  0
  7  9  1  0
  9 12  1  0
  9 10  2  0
M  RGP  2  11   1  12   2
V   11 *
V   12 *
M  END
>  <symbol>  (249)
Mono54

>  <m_abbr>  (249)
Mono54

>  <m_type>  (249)
aa

>  <m_subtype>  (249)
non-natural

>  <m_RgroupIdx>  (249)
10,11,None,None

>  <m_Rgroups>  (249)
H,OH,None,None

>  <m_attachmentPointIdx>  (249)
7,8,None,None

>  <natAnalog>  (249)
S

$$$$

     RDKit          2D

 13 12  0  0  0  0  0  0  0  0999 V2000
    7.0442   -1.2990    0.0000 C   0  0  0  0  0  0  0  0  0  0  0  0
    7.7942   -0.0000    0.0000 C   0  0  0  0  0  0  0  0  0  0  0  0
    8.5442    1.2990    0.0000 C   0  0  0  0  0  0  0  0  0  0  0  0
    9.0933   -0.7500    0.0000 O   0  0  0  0  0  0  0  0  0  0  0  0
    6.4952    0.7500    0.0000 C   0  0  0  0  0  0  0  0  0  0  0  0
    5.1962   -0.0000    0.0000 O   0  0  0  0  0  0  0  0  0  0  0  0
    3.8971    0.7500    0.0000 C   0  0  0  0  0  0  0  0  0  0  0  0
    2.5981   -0.0000    0.0000 C   0  0  0  0  0  0  0  0  0  0  0  0
    1.2990    0.7500    0.0000 N   0  0  0  0  0  0  0  0  0  0  0  0
    2.5981   -1.5000    0.0000 C   0  0  0  0  0  0  0  0  0  0  0  0
    1.2990   -2.2500    0.0000 O   0  0  0  0  0  0  0  0  0  0  0  0
    0.0000    0.0000    0.0000 R#  0  0  0  0  0  0  0  0  0  0  0  0
    3.8971   -2.2500    0.0000 R#  0  0  0  0  0  0  0  0  0  0  0  0
  1  2  1  0
  2  3  1  0
  2  4  1  0
  2  5  1  0
  5  6  1  0
  6  7  1  0
  8  7  1  1
  8  9  1  0
  9 12  1  0
  8 10  1  0
 10 13  1  0
 10 11  2  0
M  RGP  2  12   1  13   2
V   12 *
V   13 *
M  END
>  <symbol>  (250)
Mono55

>  <m_abbr>  (250)
Mono55

>  <m_type>  (250)
aa

>  <m_subtype>  (250)
non-natural

>  <m_RgroupIdx>  (250)
11,12,None,None

>  <m_Rgroups>  (250)
H,OH,None,None

>  <m_attachmentPointIdx>  (250)
8,9,None,None

>  <natAnalog>  (250)
S

$$$$

     RDKit          2D

 14 13  0  0  0  0  0  0  0  0999 V2000
    8.3433    2.0490    0.0000 C   0  0  0  0  0  0  0  0  0  0  0  0
    9.0933    0.7500    0.0000 C   0  0  0  0  0  0  0  0  0  0  0  0
    9.8433   -0.5490    0.0000 C   0  0  0  0  0  0  0  0  0  0  0  0
   10.3923    1.5000    0.0000 O   0  0  0  0  0  0  0  0  0  0  0  0
    7.7942   -0.0000    0.0000 C   0  0  0  0  0  0  0  0  0  0  0  0
    6.4952    0.7500    0.0000 C   0  0  0  0  0  0  0  0  0  0  0  0
    5.1962   -0.0000    0.0000 O   0  0  0  0  0  0  0  0  0  0  0  0
    3.8971    0.7500    0.0000 C   0  0  0  0  0  0  0  0  0  0  0  0
    2.5981   -0.0000    0.0000 C   0  0  0  0  0  0  0  0  0  0  0  0
    1.2990    0.7500    0.0000 N   0  0  0  0  0  0  0  0  0  0  0  0
    2.5981   -1.5000    0.0000 C   0  0  0  0  0  0  0  0  0  0  0  0
    1.2990   -2.2500    0.0000 O   0  0  0  0  0  0  0  0  0  0  0  0
    0.0000    0.0000    0.0000 R#  0  0  0  0  0  0  0  0  0  0  0  0
    3.8971   -2.2500    0.0000 R#  0  0  0  0  0  0  0  0  0  0  0  0
  1  2  1  0
  2  3  1  0
  2  4  1  0
  2  5  1  0
  5  6  1  0
  6  7  1  0
  7  8  1  0
  9  8  1  1
  9 10  1  0
 10 13  1  0
  9 11  1  0
 11 14  1  0
 11 12  2  0
M  RGP  2  13   1  14   2
V   13 *
V   14 *
M  END
>  <symbol>  (251)
Mono56

>  <m_abbr>  (251)
Mono56

>  <m_type>  (251)
aa

>  <m_subtype>  (251)
non-natural

>  <m_RgroupIdx>  (251)
12,13,None,None

>  <m_Rgroups>  (251)
H,OH,None,None

>  <m_attachmentPointIdx>  (251)
9,10,None,None

>  <natAnalog>  (251)
S

$$$$

     RDKit          2D

 16 15  0  0  0  0  0  0  0  0999 V2000
   11.1423    1.2990    0.0000 C   0  0  0  0  0  0  0  0  0  0  0  0
   10.3923   -0.0000    0.0000 C   0  0  0  0  0  0  0  0  0  0  0  0
    9.6423   -1.2990    0.0000 C   0  0  0  0  0  0  0  0  0  0  0  0
   11.6913   -0.7500    0.0000 C   0  0  0  0  0  0  0  0  0  0  0  0
    9.0933    0.7500    0.0000 N   0  0  0  0  0  0  0  0  0  0  0  0
    7.7942   -0.0000    0.0000 C   0  0  0  0  0  0  0  0  0  0  0  0
    7.7942   -1.5000    0.0000 O   0  0  0  0  0  0  0  0  0  0  0  0
    6.4952    0.7500    0.0000 C   0  0  0  0  0  0  0  0  0  0  0  0
    5.1962   -0.0000    0.0000 O   0  0  0  0  0  0  0  0  0  0  0  0
    3.8971    0.7500    0.0000 C   0  0  0  0  0  0  0  0  0  0  0  0
    2.5981   -0.0000    0.0000 C   0  0  0  0  0  0  0  0  0  0  0  0
    1.2990    0.7500    0.0000 N   0  0  0  0  0  0  0  0  0  0  0  0
    2.5981   -1.5000    0.0000 C   0  0  0  0  0  0  0  0  0  0  0  0
    1.2990   -2.2500    0.0000 O   0  0  0  0  0  0  0  0  0  0  0  0
    0.0000    0.0000    0.0000 R#  0  0  0  0  0  0  0  0  0  0  0  0
    3.8971   -2.2500    0.0000 R#  0  0  0  0  0  0  0  0  0  0  0  0
  1  2  1  0
  2  3  1  0
  2  4  1  0
  2  5  1  0
  5  6  1  0
  6  7  2  0
  6  8  1  0
  8  9  1  0
  9 10  1  0
 11 10  1  1
 11 12  1  0
 12 15  1  0
 11 13  1  0
 13 16  1  0
 13 14  2  0
M  RGP  2  15   1  16   2
V   15 *
V   16 *
M  END
>  <symbol>  (252)
Mono57

>  <m_abbr>  (252)
Mono57

>  <m_type>  (252)
aa

>  <m_subtype>  (252)
non-natural

>  <m_RgroupIdx>  (252)
14,15,None,None

>  <m_Rgroups>  (252)
H,OH,None,None

>  <m_attachmentPointIdx>  (252)
11,12,None,None

>  <natAnalog>  (252)
S

$$$$

     RDKit          2D

 16 16  0  0  0  0  0  0  0  0999 V2000
    5.2500   -1.2990    0.0000 N   0  0  0  0  0  0  0  0  0  0  0  0
    3.7500   -1.2990    0.0000 C   0  0  0  0  0  0  0  0  0  0  0  0
    3.0000    0.0000    0.0000 C   0  0  0  0  0  0  0  0  0  0  0  0
    1.5000    0.0000    0.0000 N   0  0  0  0  0  0  0  0  0  0  0  0
    0.7500   -1.2990    0.0000 C   0  0  0  0  0  0  0  0  0  0  0  0
   -0.7500   -1.2990    0.0000 C   0  0  0  0  0  0  0  0  0  0  0  0
   -1.5000    0.0000    0.0000 C   0  0  0  0  0  0  0  0  0  0  0  0
   -2.6491   -0.9642    0.0000 F   0  0  0  0  0  0  0  0  0  0  0  0
   -2.6491    0.9642    0.0000 F   0  0  0  0  0  0  0  0  0  0  0  0
   -0.7500    1.2990    0.0000 C   0  0  0  0  0  0  0  0  0  0  0  0
    0.7500    1.2990    0.0000 C   0  0  0  0  0  0  0  0  0  0  0  0
    6.0000    0.0000    0.0000 C   0  0  0  0  0  0  0  0  0  0  0  0
    7.5000    0.0000    0.0000 C   0  0  0  0  0  0  0  0  0  0  0  0
    8.2500   -1.2990    0.0000 O   0  0  0  0  0  0  0  0  0  0  0  0
    6.0000   -2.5981    0.0000 R#  0  0  0  0  0  0  0  0  0  0  0  0
    8.2500    1.2990    0.0000 R#  0  0  0  0  0  0  0  0  0  0  0  0
 15  1  1  0
  1  2  1  0
  2  3  1  0
  3  4  1  0
  4  5  1  0
  5  6  1  0
  6  7  1  0
  7  8  1  0
  7  9  1  0
  7 10  1  0
 10 11  1  0
  1 12  1  0
 12 13  1  0
 13 16  1  0
 13 14  2  0
 11  4  1  0
M  RGP  2  15   1  16   2
V   15 *
V   16 *
M  END
>  <symbol>  (253)
Mono58

>  <m_abbr>  (253)
Mono58

>  <m_type>  (253)
aa

>  <m_subtype>  (253)
non-natural

>  <m_RgroupIdx>  (253)
14,15,None,None

>  <m_Rgroups>  (253)
H,OH,None,None

>  <m_attachmentPointIdx>  (253)
0,12,None,None

>  <natAnalog>  (253)
G

$$$$

     RDKit          2D

 17 18  0  0  0  0  0  0  0  0999 V2000
    3.3037   -4.2221    0.0000 N   0  0  0  0  0  0  0  0  0  0  0  0
    2.9918   -2.7549    0.0000 C   0  0  0  0  0  0  0  0  0  0  0  0
    1.5000   -2.5981    0.0000 C   0  0  0  0  0  0  0  0  0  0  0  0
    0.7500   -1.2990    0.0000 N   0  0  0  0  0  0  0  0  0  0  0  0
    1.5000    0.0000    0.0000 C   0  0  0  0  0  0  0  0  0  0  0  0
    0.7500    1.2990    0.0000 C   0  0  0  0  0  0  0  0  0  0  0  0
   -0.7500    1.2990    0.0000 C   0  0  0  0  0  0  0  0  0  0  0  0
   -2.1595    1.8121    0.0000 F   0  0  0  0  0  0  0  0  0  0  0  0
   -0.4895    2.7762    0.0000 F   0  0  0  0  0  0  0  0  0  0  0  0
   -1.5000    0.0000    0.0000 C   0  0  0  0  0  0  0  0  0  0  0  0
   -0.7500   -1.2990    0.0000 C   0  0  0  0  0  0  0  0  0  0  0  0
    0.8899   -3.9684    0.0000 C   0  0  0  0  0  0  0  0  0  0  0  0
    2.0046   -4.9721    0.0000 C   0  0  0  0  0  0  0  0  0  0  0  0
    1.8478   -6.4639    0.0000 C   0  0  0  0  0  0  0  0  0  0  0  0
    3.0613   -7.3456    0.0000 O   0  0  0  0  0  0  0  0  0  0  0  0
    4.6740   -4.8322    0.0000 R#  0  0  0  0  0  0  0  0  0  0  0  0
    0.4775   -7.0740    0.0000 R#  0  0  0  0  0  0  0  0  0  0  0  0
 16  1  1  0
  1  2  1  0
  2  3  1  0
  3  4  1  1
  4  5  1  0
  5  6  1  0
  6  7  1  0
  7  8  1  0
  7  9  1  0
  7 10  1  0
 10 11  1  0
  3 12  1  0
 12 13  1  0
 13 14  1  6
 14 17  1  0
 14 15  2  0
 13  1  1  0
 11  4  1  0
M  RGP  2  16   1  17   2
V   16 *
V   17 *
M  END
>  <symbol>  (254)
Mono59

>  <m_abbr>  (254)
Mono59

>  <m_type>  (254)
aa

>  <m_subtype>  (254)
non-natural

>  <m_RgroupIdx>  (254)
15,16,None,None

>  <m_Rgroups>  (254)
H,OH,None,None

>  <m_attachmentPointIdx>  (254)
0,13,None,None

>  <natAnalog>  (254)
P

$$$$

     RDKit          2D

 17 18  0  0  0  0  0  0  0  0999 V2000
    3.3037   -4.2221    0.0000 N   0  0  0  0  0  0  0  0  0  0  0  0
    2.9918   -2.7549    0.0000 C   0  0  0  0  0  0  0  0  0  0  0  0
    1.5000   -2.5981    0.0000 C   0  0  0  0  0  0  0  0  0  0  0  0
    0.7500   -1.2990    0.0000 N   0  0  0  0  0  0  0  0  0  0  0  0
    1.5000    0.0000    0.0000 C   0  0  0  0  0  0  0  0  0  0  0  0
    0.7500    1.2990    0.0000 C   0  0  0  0  0  0  0  0  0  0  0  0
   -0.7500    1.2990    0.0000 C   0  0  0  0  0  0  0  0  0  0  0  0
   -2.1595    1.8121    0.0000 F   0  0  0  0  0  0  0  0  0  0  0  0
   -0.4895    2.7762    0.0000 F   0  0  0  0  0  0  0  0  0  0  0  0
   -1.5000    0.0000    0.0000 C   0  0  0  0  0  0  0  0  0  0  0  0
   -0.7500   -1.2990    0.0000 C   0  0  0  0  0  0  0  0  0  0  0  0
    0.8899   -3.9684    0.0000 C   0  0  0  0  0  0  0  0  0  0  0  0
    2.0046   -4.9721    0.0000 C   0  0  0  0  0  0  0  0  0  0  0  0
    1.8478   -6.4639    0.0000 C   0  0  0  0  0  0  0  0  0  0  0  0
    3.0613   -7.3456    0.0000 O   0  0  0  0  0  0  0  0  0  0  0  0
    4.6740   -4.8322    0.0000 R#  0  0  0  0  0  0  0  0  0  0  0  0
    0.4775   -7.0740    0.0000 R#  0  0  0  0  0  0  0  0  0  0  0  0
 16  1  1  0
  1  2  1  0
  2  3  1  0
  3  4  1  6
  4  5  1  0
  5  6  1  0
  6  7  1  0
  7  8  1  0
  7  9  1  0
  7 10  1  0
 10 11  1  0
  3 12  1  0
 12 13  1  0
 13 14  1  6
 14 17  1  0
 14 15  2  0
 13  1  1  0
 11  4  1  0
M  RGP  2  16   1  17   2
V   16 *
V   17 *
M  END
>  <symbol>  (255)
Mono60

>  <m_abbr>  (255)
Mono60

>  <m_type>  (255)
aa

>  <m_subtype>  (255)
non-natural

>  <m_RgroupIdx>  (255)
15,16,None,None

>  <m_Rgroups>  (255)
H,OH,None,None

>  <m_attachmentPointIdx>  (255)
0,13,None,None

>  <natAnalog>  (255)
P

$$$$

     RDKit          2D

 12 11  0  0  0  0  0  0  0  0999 V2000
    9.0933    0.7500    0.0000 C   0  0  0  0  0  0  0  0  0  0  0  0
    7.7942   -0.0000    0.0000 C   0  0  0  0  0  0  0  0  0  0  0  0
    6.4952    0.7500    0.0000 C   0  0  0  0  0  0  0  0  0  0  0  0
    5.1962   -0.0000    0.0000 C   0  0  0  0  0  0  0  0  0  0  0  0
    3.8971    0.7500    0.0000 C   0  0  0  0  0  0  0  0  0  0  0  0
    3.8971    2.2500    0.0000 O   0  0  0  0  0  0  0  0  0  0  0  0
    2.5981   -0.0000    0.0000 C   0  0  0  0  0  0  0  0  0  0  0  0
    1.2990    0.7500    0.0000 N   0  0  0  0  0  0  0  0  0  0  0  0
    2.5981   -1.5000    0.0000 C   0  0  0  0  0  0  0  0  0  0  0  0
    1.2990   -2.2500    0.0000 O   0  0  0  0  0  0  0  0  0  0  0  0
    0.0000    0.0000    0.0000 R#  0  0  0  0  0  0  0  0  0  0  0  0
    3.8971   -2.2500    0.0000 R#  0  0  0  0  0  0  0  0  0  0  0  0
  1  2  1  0
  2  3  1  0
  3  4  1  0
  4  5  1  0
  5  6  1  6
  5  7  1  0
  7  8  1  1
  8 11  1  0
  7  9  1  0
  9 12  1  0
  9 10  2  0
M  RGP  2  11   1  12   2
V   11 *
V   12 *
M  END
>  <symbol>  (256)
Mono61

>  <m_abbr>  (256)
Mono61

>  <m_type>  (256)
aa

>  <m_subtype>  (256)
non-natural

>  <m_RgroupIdx>  (256)
10,11,None,None

>  <m_Rgroups>  (256)
H,OH,None,None

>  <m_attachmentPointIdx>  (256)
7,8,None,None

>  <natAnalog>  (256)
X

$$$$

     RDKit          2D

 16 16  0  0  0  0  0  0  0  0999 V2000
    8.2500   -1.2990    0.0000 N   0  0  0  0  0  0  0  0  0  0  0  0
    7.5000   -2.5981    0.0000 C   0  0  0  0  0  0  0  0  0  0  0  0
    6.0000   -2.5981    0.0000 C   0  0  0  0  0  0  0  0  0  0  0  0
    5.2500   -1.2990    0.0000 O   0  0  0  0  0  0  0  0  0  0  0  0
    3.7500   -1.2990    0.0000 C   0  0  0  0  0  0  0  0  0  0  0  0
    3.0000    0.0000    0.0000 C   0  0  0  0  0  0  0  0  0  0  0  0
    1.5000    0.0000    0.0000 N   0  0  0  0  0  0  0  0  0  0  0  0
    0.7500   -1.2990    0.0000 C   0  0  0  0  0  0  0  0  0  0  0  0
   -0.7500   -1.2990    0.0000 C   0  0  0  0  0  0  0  0  0  0  0  0
   -1.5000    0.0000    0.0000 O   0  0  0  0  0  0  0  0  0  0  0  0
   -0.7500    1.2990    0.0000 C   0  0  0  0  0  0  0  0  0  0  0  0
    0.7500    1.2990    0.0000 C   0  0  0  0  0  0  0  0  0  0  0  0
    8.2500   -3.8971    0.0000 C   0  0  0  0  0  0  0  0  0  0  0  0
    7.5000   -5.1962    0.0000 O   0  0  0  0  0  0  0  0  0  0  0  0
    9.7500   -1.2990    0.0000 R#  0  0  0  0  0  0  0  0  0  0  0  0
    9.7500   -3.8971    0.0000 R#  0  0  0  0  0  0  0  0  0  0  0  0
 15  1  1  0
  1  2  1  0
  2  3  1  6
  3  4  1  0
  4  5  1  0
  5  6  1  0
  6  7  1  0
  7  8  1  0
  8  9  1  0
  9 10  1  0
 10 11  1  0
 11 12  1  0
  2 13  1  0
 13 16  1  0
 13 14  2  0
 12  7  1  0
M  RGP  2  15   1  16   2
V   15 *
V   16 *
M  END
>  <symbol>  (257)
Mono62

>  <m_abbr>  (257)
Mono62

>  <m_type>  (257)
aa

>  <m_subtype>  (257)
non-natural

>  <m_RgroupIdx>  (257)
14,15,None,None

>  <m_Rgroups>  (257)
H,OH,None,None

>  <m_attachmentPointIdx>  (257)
0,12,None,None

>  <natAnalog>  (257)
S

$$$$

     RDKit          2D

 14 14  0  0  0  0  0  0  0  0999 V2000
    5.7760    0.0000    0.0000 N   0  0  0  0  0  0  0  0  0  0  0  0
    5.0260   -1.2990    0.0000 C   0  0  0  0  0  0  0  0  0  0  0  0
    3.5260   -1.2990    0.0000 C   0  0  0  0  0  0  0  0  0  0  0  0
    2.7760    0.0000    0.0000 C   0  0  0  0  0  0  0  0  0  0  0  0
    1.2760    0.0000    0.0000 C   0  0  0  0  0  0  0  0  0  0  0  0
    0.3943    1.2135    0.0000 N   0  0  0  0  0  0  0  0  0  0  0  0
   -1.0323    0.7500    0.0000 O   0  0  0  0  0  0  0  0  0  0  0  0
   -1.0323   -0.7500    0.0000 C   0  0  0  0  0  0  0  0  0  0  0  0
   -2.2458   -1.6317    0.0000 O   0  0  0  0  0  0  0  0  0  0  0  0
    0.3943   -1.2135    0.0000 N   0  0  0  0  0  0  0  0  0  0  0  0
    5.7760   -2.5981    0.0000 C   0  0  0  0  0  0  0  0  0  0  0  0
    5.0260   -3.8971    0.0000 O   0  0  0  0  0  0  0  0  0  0  0  0
    7.2760    0.0000    0.0000 R#  0  0  0  0  0  0  0  0  0  0  0  0
    7.2760   -2.5981    0.0000 R#  0  0  0  0  0  0  0  0  0  0  0  0
 13  1  1  0
  1  2  1  0
  2  3  1  6
  3  4  1  0
  4  5  1  0
  5  6  2  0
  6  7  1  0
  7  8  1  0
  8  9  2  0
  8 10  1  0
  2 11  1  0
 11 14  1  0
 11 12  2  0
 10  5  1  0
M  RGP  2  13   1  14   2
V   13 *
V   14 *
M  END
>  <symbol>  (258)
Mono63

>  <m_abbr>  (258)
Mono63

>  <m_type>  (258)
aa

>  <m_subtype>  (258)
non-natural

>  <m_RgroupIdx>  (258)
12,13,None,None

>  <m_Rgroups>  (258)
H,OH,None,None

>  <m_attachmentPointIdx>  (258)
0,10,None,None

>  <natAnalog>  (258)
X

$$$$

     RDKit          2D

 12 11  0  0  0  0  0  0  0  0999 V2000
    9.0933    0.7500    0.0000 C   0  0  0  0  0  0  0  0  0  0  0  0
    7.7942   -0.0000    0.0000 C   0  0  0  0  0  0  0  0  0  0  0  0
    7.7942   -1.5000    0.0000 O   0  0  0  0  0  0  0  0  0  0  0  0
    6.4952    0.7500    0.0000 C   0  0  0  0  0  0  0  0  0  0  0  0
    5.1962   -0.0000    0.0000 O   0  0  0  0  0  0  0  0  0  0  0  0
    3.8971    0.7500    0.0000 C   0  0  0  0  0  0  0  0  0  0  0  0
    2.5981   -0.0000    0.0000 C   0  0  0  0  0  0  0  0  0  0  0  0
    1.2990    0.7500    0.0000 N   0  0  0  0  0  0  0  0  0  0  0  0
    2.5981   -1.5000    0.0000 C   0  0  0  0  0  0  0  0  0  0  0  0
    1.2990   -2.2500    0.0000 O   0  0  0  0  0  0  0  0  0  0  0  0
    0.0000    0.0000    0.0000 R#  0  0  0  0  0  0  0  0  0  0  0  0
    3.8971   -2.2500    0.0000 R#  0  0  0  0  0  0  0  0  0  0  0  0
  2  1  1  1
  2  3  1  0
  2  4  1  0
  4  5  1  0
  5  6  1  0
  7  6  1  1
  7  8  1  0
  8 11  1  0
  7  9  1  0
  9 12  1  0
  9 10  2  0
M  RGP  2  11   1  12   2
V   11 *
V   12 *
M  END
>  <symbol>  (259)
Mono64

>  <m_abbr>  (259)
Mono64

>  <m_type>  (259)
aa

>  <m_subtype>  (259)
non-natural

>  <m_RgroupIdx>  (259)
10,11,None,None

>  <m_Rgroups>  (259)
H,OH,None,None

>  <m_attachmentPointIdx>  (259)
7,8,None,None

>  <natAnalog>  (259)
S

$$$$

     RDKit          2D

 15 14  0  0  0  0  0  0  0  0999 V2000
    1.2990    0.7500    0.0000 N   0  0  0  0  0  0  0  0  0  0  0  0
    2.5981   -0.0000    0.0000 C   0  0  0  0  0  0  0  0  0  0  0  0
    3.8971    0.7500    0.0000 C   0  0  0  0  0  0  0  0  0  0  0  0
    5.1962   -0.0000    0.0000 C   0  0  0  0  0  0  0  0  0  0  0  0
    6.4952    0.7500    0.0000 C   0  0  0  0  0  0  0  0  0  0  0  0
    7.7942   -0.0000    0.0000 C   0  0  0  0  0  0  0  0  0  0  0  0
    7.7942   -1.5000    0.0000 O   0  0  0  0  0  0  0  0  0  0  0  0
    9.0933    0.7500    0.0000 C   0  0  0  0  0  0  0  0  0  0  0  0
   10.3923    1.5000    0.0000 F   0  0  0  0  0  0  0  0  0  0  0  0
    9.8433   -0.5490    0.0000 F   0  0  0  0  0  0  0  0  0  0  0  0
    8.3433    2.0490    0.0000 F   0  0  0  0  0  0  0  0  0  0  0  0
    2.5981   -1.5000    0.0000 C   0  0  0  0  0  0  0  0  0  0  0  0
    1.2990   -2.2500    0.0000 O   0  0  0  0  0  0  0  0  0  0  0  0
    0.0000    0.0000    0.0000 R#  0  0  0  0  0  0  0  0  0  0  0  0
    3.8971   -2.2500    0.0000 R#  0  0  0  0  0  0  0  0  0  0  0  0
 14  1  1  0
  1  2  1  0
  2  3  1  1
  3  4  1  0
  4  5  1  0
  5  6  1  0
  6  7  1  0
  6  8  1  0
  8  9  1  0
  8 10  1  0
  8 11  1  0
  2 12  1  0
 12 15  1  0
 12 13  2  0
M  RGP  2  14   1  15   2
V   14 *
V   15 *
M  END
>  <symbol>  (260)
Mono65

>  <m_abbr>  (260)
Mono65

>  <m_type>  (260)
aa

>  <m_subtype>  (260)
non-natural

>  <m_RgroupIdx>  (260)
13,14,None,None

>  <m_Rgroups>  (260)
H,OH,None,None

>  <m_attachmentPointIdx>  (260)
0,11,None,None

>  <natAnalog>  (260)
X

$$$$

     RDKit          2D

 15 14  0  0  0  0  0  0  0  0999 V2000
    1.2990    0.7500    0.0000 N   0  0  0  0  0  0  0  0  0  0  0  0
    2.5981   -0.0000    0.0000 C   0  0  0  0  0  0  0  0  0  0  0  0
    3.8971    0.7500    0.0000 C   0  0  0  0  0  0  0  0  0  0  0  0
    5.1962   -0.0000    0.0000 O   0  0  0  0  0  0  0  0  0  0  0  0
    6.4952    0.7500    0.0000 C   0  0  0  0  0  0  0  0  0  0  0  0
    7.7942   -0.0000    0.0000 C   0  0  0  0  0  0  0  0  0  0  0  0
    7.7942   -1.5000    0.0000 O   0  0  0  0  0  0  0  0  0  0  0  0
    9.0933    0.7500    0.0000 C   0  0  0  0  0  0  0  0  0  0  0  0
   10.3923    1.5000    0.0000 F   0  0  0  0  0  0  0  0  0  0  0  0
    9.8433   -0.5490    0.0000 F   0  0  0  0  0  0  0  0  0  0  0  0
    8.3433    2.0490    0.0000 F   0  0  0  0  0  0  0  0  0  0  0  0
    2.5981   -1.5000    0.0000 C   0  0  0  0  0  0  0  0  0  0  0  0
    1.2990   -2.2500    0.0000 O   0  0  0  0  0  0  0  0  0  0  0  0
    0.0000    0.0000    0.0000 R#  0  0  0  0  0  0  0  0  0  0  0  0
    3.8971   -2.2500    0.0000 R#  0  0  0  0  0  0  0  0  0  0  0  0
 14  1  1  0
  1  2  1  0
  2  3  1  1
  3  4  1  0
  4  5  1  0
  5  6  1  0
  6  7  1  0
  6  8  1  0
  8  9  1  0
  8 10  1  0
  8 11  1  0
  2 12  1  0
 12 15  1  0
 12 13  2  0
M  RGP  2  14   1  15   2
V   14 *
V   15 *
M  END
>  <symbol>  (261)
Mono66

>  <m_abbr>  (261)
Mono66

>  <m_type>  (261)
aa

>  <m_subtype>  (261)
non-natural

>  <m_RgroupIdx>  (261)
13,14,None,None

>  <m_Rgroups>  (261)
H,OH,None,None

>  <m_attachmentPointIdx>  (261)
0,11,None,None

>  <natAnalog>  (261)
S

$$$$

     RDKit          2D

 19 18  0  0  0  0  0  0  0  0999 V2000
   -6.7500   -6.4952    0.0000 C   0  0  0  0  0  0  0  0  0  0  0  0
   -5.2500   -6.4952    0.0000 C   0  0  0  0  0  0  0  0  0  0  0  0
   -4.5000   -5.1962    0.0000 C   0  0  0  0  0  0  0  0  0  0  0  0
   -3.0000   -5.1962    0.0000 C   0  0  0  0  0  0  0  0  0  0  0  0
   -2.2500   -6.4952    0.0000 C   0  0  0  0  0  0  0  0  0  0  0  0
   -2.2500   -3.8971    0.0000 C   0  0  0  0  0  0  0  0  0  0  0  0
   -0.7500   -3.8971    0.0000 O   0  0  0  0  0  0  0  0  0  0  0  0
   -3.0000   -2.5981    0.0000 C   0  0  0  0  0  0  0  0  0  0  0  0
   -4.5000   -2.5981    0.0000 C   0  0  0  0  0  0  0  0  0  0  0  0
   -2.2500   -1.2990    0.0000 C   0  0  0  0  0  0  0  0  0  0  0  0
   -3.0000    0.0000    0.0000 O   0  0  0  0  0  0  0  0  0  0  0  0
   -0.7500   -1.2990    0.0000 C   0  0  0  0  0  0  0  0  0  0  0  0
    0.0000    0.0000    0.0000 C   0  0  0  0  0  0  0  0  0  0  0  0
    1.5000    0.0000    0.0000 C   0  0  0  0  0  0  0  0  0  0  0  0
    2.2500   -1.2990    0.0000 C   0  0  0  0  0  0  0  0  0  0  0  0
    2.2500    1.2990    0.0000 C   0  0  0  0  0  0  0  0  0  0  0  0
    1.5000    2.5981    0.0000 O   0  0  0  0  0  0  0  0  0  0  0  0
   -0.0000   -5.1962    0.0000 R#  0  0  0  0  0  0  0  0  0  0  0  0
    3.7500    1.2990    0.0000 R#  0  0  0  0  0  0  0  0  0  0  0  0
  1  2  1  0
  2  3  1  0
  3  4  1  0
  4  5  1  1
  4  6  1  0
  6  7  1  6
  7 18  1  0
  6  8  1  0
  8  9  1  1
  8 10  1  0
 10 11  1  1
 10 12  1  0
 12 13  1  0
 13 14  2  0
 14 15  1  0
 14 16  1  0
 16 19  1  0
 16 17  2  0
M  RGP  2  18   1  19   2
V   18 *
V   19 *
M  END
>  <symbol>  (262)
Mono67

>  <m_abbr>  (262)
Mono67

>  <m_type>  (262)
aa

>  <m_subtype>  (262)
non-natural

>  <m_RgroupIdx>  (262)
17,18,None,None

>  <m_Rgroups>  (262)
H,OH,None,None

>  <m_attachmentPointIdx>  (262)
6,15,None,None

>  <natAnalog>  (262)
X

$$$$

     RDKit          2D

 20 19  0  0  0  0  0  0  0  0999 V2000
   -6.7500   -6.4952    0.0000 C   0  0  0  0  0  0  0  0  0  0  0  0
   -5.2500   -6.4952    0.0000 C   0  0  0  0  0  0  0  0  0  0  0  0
   -4.5000   -5.1962    0.0000 C   0  0  0  0  0  0  0  0  0  0  0  0
   -3.0000   -5.1962    0.0000 C   0  0  0  0  0  0  0  0  0  0  0  0
   -2.2500   -6.4952    0.0000 C   0  0  0  0  0  0  0  0  0  0  0  0
   -2.2500   -3.8971    0.0000 C   0  0  0  0  0  0  0  0  0  0  0  0
   -0.7500   -3.8971    0.0000 O   0  0  0  0  0  0  0  0  0  0  0  0
   -3.0000   -2.5981    0.0000 C   0  0  0  0  0  0  0  0  0  0  0  0
   -4.5000   -2.5981    0.0000 C   0  0  0  0  0  0  0  0  0  0  0  0
   -2.2500   -1.2990    0.0000 C   0  0  0  0  0  0  0  0  0  0  0  0
   -0.7500   -1.2990    0.0000 C   0  0  0  0  0  0  0  0  0  0  0  0
    0.0000    0.0000    0.0000 C   0  0  0  0  0  0  0  0  0  0  0  0
    1.5000    0.0000    0.0000 C   0  0  0  0  0  0  0  0  0  0  0  0
    2.2500   -1.2990    0.0000 C   0  0  0  0  0  0  0  0  0  0  0  0
    2.2500    1.2990    0.0000 C   0  0  0  0  0  0  0  0  0  0  0  0
    1.5000    2.5981    0.0000 O   0  0  0  0  0  0  0  0  0  0  0  0
   -3.0000    0.0000    0.0000 O   0  0  0  0  0  0  0  0  0  0  0  0
   -4.5000   -0.0000    0.0000 C   0  0  0  0  0  0  0  0  0  0  0  0
   -0.0000   -5.1962    0.0000 R#  0  0  0  0  0  0  0  0  0  0  0  0
    3.7500    1.2990    0.0000 R#  0  0  0  0  0  0  0  0  0  0  0  0
  1  2  1  0
  2  3  1  0
  3  4  1  0
  4  5  1  1
  4  6  1  0
  6  7  1  6
  7 19  1  0
  6  8  1  0
  8  9  1  1
  8 10  1  0
 10 11  1  1
 11 12  1  0
 12 13  2  0
 13 14  1  0
 13 15  1  0
 15 20  1  0
 15 16  2  0
 10 17  1  0
 17 18  1  0
M  RGP  2  19   1  20   2
V   19 *
V   20 *
M  END
>  <symbol>  (263)
Mono68

>  <m_abbr>  (263)
Mono68

>  <m_type>  (263)
aa

>  <m_subtype>  (263)
non-natural

>  <m_RgroupIdx>  (263)
18,19,None,None

>  <m_Rgroups>  (263)
H,OH,None,None

>  <m_attachmentPointIdx>  (263)
6,14,None,None

>  <natAnalog>  (263)
X

$$$$

     RDKit          2D

 20 19  0  0  0  0  0  0  0  0999 V2000
   -6.7500   -6.4952    0.0000 C   0  0  0  0  0  0  0  0  0  0  0  0
   -5.2500   -6.4952    0.0000 C   0  0  0  0  0  0  0  0  0  0  0  0
   -4.5000   -5.1962    0.0000 C   0  0  0  0  0  0  0  0  0  0  0  0
   -3.0000   -5.1962    0.0000 C   0  0  0  0  0  0  0  0  0  0  0  0
   -2.2500   -6.4952    0.0000 C   0  0  0  0  0  0  0  0  0  0  0  0
   -2.2500   -3.8971    0.0000 C   0  0  0  0  0  0  0  0  0  0  0  0
   -0.7500   -3.8971    0.0000 O   0  0  0  0  0  0  0  0  0  0  0  0
   -0.0000   -5.1962    0.0000 C   0  0  0  0  0  0  0  0  0  0  0  0
   -3.0000   -2.5981    0.0000 C   0  0  0  0  0  0  0  0  0  0  0  0
   -4.5000   -2.5981    0.0000 C   0  0  0  0  0  0  0  0  0  0  0  0
   -2.2500   -1.2990    0.0000 C   0  0  0  0  0  0  0  0  0  0  0  0
   -0.7500   -1.2990    0.0000 C   0  0  0  0  0  0  0  0  0  0  0  0
    0.0000    0.0000    0.0000 C   0  0  0  0  0  0  0  0  0  0  0  0
    1.5000    0.0000    0.0000 C   0  0  0  0  0  0  0  0  0  0  0  0
    2.2500   -1.2990    0.0000 C   0  0  0  0  0  0  0  0  0  0  0  0
    2.2500    1.2990    0.0000 C   0  0  0  0  0  0  0  0  0  0  0  0
    1.5000    2.5981    0.0000 O   0  0  0  0  0  0  0  0  0  0  0  0
   -3.0000    0.0000    0.0000 O   0  0  0  0  0  0  0  0  0  0  0  0
   -4.5000   -0.0000    0.0000 R#  0  0  0  0  0  0  0  0  0  0  0  0
    3.7500    1.2990    0.0000 R#  0  0  0  0  0  0  0  0  0  0  0  0
  1  2  1  0
  2  3  1  0
  3  4  1  0
  4  5  1  1
  4  6  1  0
  6  7  1  6
  7  8  1  0
  6  9  1  0
  9 10  1  1
  9 11  1  0
 11 12  1  1
 12 13  1  0
 13 14  2  0
 14 15  1  0
 14 16  1  0
 16 20  1  0
 16 17  2  0
 11 18  1  0
 18 19  1  0
M  RGP  2  19   1  20   2
V   19 *
V   20 *
M  END
>  <symbol>  (264)
Mono69

>  <m_abbr>  (264)
Mono69

>  <m_type>  (264)
aa

>  <m_subtype>  (264)
non-natural

>  <m_RgroupIdx>  (264)
18,19,None,None

>  <m_Rgroups>  (264)
H,OH,None,None

>  <m_attachmentPointIdx>  (264)
17,15,None,None

>  <natAnalog>  (264)
X

$$$$

     RDKit          2D

 15 14  0  0  0  0  0  0  0  0999 V2000
   -0.7500   -1.2990    0.0000 C   0  0  0  0  0  0  0  0  0  0  0  0
    0.0000    0.0000    0.0000 C   0  0  0  0  0  0  0  0  0  0  0  0
    1.5000    0.0000    0.0000 C   0  0  0  0  0  0  0  0  0  0  0  0
    2.2500    1.2990    0.0000 C   0  0  0  0  0  0  0  0  0  0  0  0
    3.7500    1.2990    0.0000 C   0  0  0  0  0  0  0  0  0  0  0  0
    4.5000    2.5981    0.0000 C   0  0  0  0  0  0  0  0  0  0  0  0
    4.5000   -0.0000    0.0000 C   0  0  0  0  0  0  0  0  0  0  0  0
    3.7500   -1.2990    0.0000 O   0  0  0  0  0  0  0  0  0  0  0  0
    6.0000   -0.0000    0.0000 C   0  0  0  0  0  0  0  0  0  0  0  0
    6.7500   -1.2990    0.0000 C   0  0  0  0  0  0  0  0  0  0  0  0
    6.0000   -2.5981    0.0000 O   0  0  0  0  0  0  0  0  0  0  0  0
    6.7500    1.2990    0.0000 N   0  0  0  0  0  0  0  0  0  0  0  0
    6.0000    2.5981    0.0000 C   0  0  0  0  0  0  0  0  0  0  0  0
    8.2500    1.2990    0.0000 R#  0  0  0  0  0  0  0  0  0  0  0  0
    8.2500   -1.2990    0.0000 R#  0  0  0  0  0  0  0  0  0  0  0  0
  1  2  1  0
  2  3  2  0
  3  4  1  0
  4  5  1  0
  5  6  1  1
  5  7  1  0
  7  8  2  0
  7  9  1  0
  9 10  1  0
 10 15  1  0
 10 11  2  0
  9 12  1  6
 12 13  1  0
 12 14  1  0
M  RGP  2  14   1  15   2
V   14 *
V   15 *
M  END
>  <symbol>  (265)
Mono70

>  <m_abbr>  (265)
Mono70

>  <m_type>  (265)
aa

>  <m_subtype>  (265)
non-natural

>  <m_RgroupIdx>  (265)
13,14,None,None

>  <m_Rgroups>  (265)
H,OH,None,None

>  <m_attachmentPointIdx>  (265)
11,9,None,None

>  <natAnalog>  (265)
X

$$$$

     RDKit          2D

 17 17  0  0  0  0  0  0  0  0999 V2000
    5.7760   -2.5981    0.0000 C   0  0  0  0  0  0  0  0  0  0  0  0
    5.0260   -1.2990    0.0000 C   0  0  0  0  0  0  0  0  0  0  0  0
    3.5260   -1.2990    0.0000 O   0  0  0  0  0  0  0  0  0  0  0  0
    2.7760    0.0000    0.0000 C   0  0  0  0  0  0  0  0  0  0  0  0
    3.5260    1.2990    0.0000 O   0  0  0  0  0  0  0  0  0  0  0  0
    1.2760    0.0000    0.0000 N   0  0  0  0  0  0  0  0  0  0  0  0
    0.3943    1.2135    0.0000 C   0  0  0  0  0  0  0  0  0  0  0  0
   -1.0323    0.7500    0.0000 N   0  0  0  0  0  0  0  0  0  0  0  0
   -1.0323   -0.7500    0.0000 C   0  0  0  0  0  0  0  0  0  0  0  0
   -2.2458   -1.6317    0.0000 C   0  0  0  0  0  0  0  0  0  0  0  0
   -3.6161   -1.0216    0.0000 C   0  0  0  0  0  0  0  0  0  0  0  0
   -3.7729    0.4702    0.0000 N   0  0  0  0  0  0  0  0  0  0  0  0
   -4.8297   -1.9033    0.0000 C   0  0  0  0  0  0  0  0  0  0  0  0
   -4.6729   -3.3950    0.0000 O   0  0  0  0  0  0  0  0  0  0  0  0
    0.3943   -1.2135    0.0000 C   0  0  0  0  0  0  0  0  0  0  0  0
   -5.1432    1.0803    0.0000 R#  0  0  0  0  0  0  0  0  0  0  0  0
   -6.2000   -1.2931    0.0000 R#  0  0  0  0  0  0  0  0  0  0  0  0
  1  2  1  0
  2  3  1  0
  3  4  1  0
  4  5  2  0
  4  6  1  0
  6  7  1  0
  7  8  2  0
  8  9  1  0
  9 10  1  0
 11 10  1  1
 11 12  1  0
 12 16  1  0
 11 13  1  0
 13 17  1  0
 13 14  2  0
  9 15  2  0
 15  6  1  0
M  RGP  2  16   1  17   2
V   16 *
V   17 *
M  END
>  <symbol>  (266)
Mono71

>  <m_abbr>  (266)
Mono71

>  <m_type>  (266)
aa

>  <m_subtype>  (266)
non-natural

>  <m_RgroupIdx>  (266)
15,16,None,None

>  <m_Rgroups>  (266)
H,OH,None,None

>  <m_attachmentPointIdx>  (266)
11,12,None,None

>  <natAnalog>  (266)
H

$$$$

     RDKit          2D

 21 20  0  0  0  0  0  0  0  0999 V2000
   12.9904   -0.0000    0.0000 C   0  0  0  0  0  0  0  0  0  0  0  0
   11.6913    0.7500    0.0000 C   0  0  0  0  0  0  0  0  0  0  0  0
   10.3923   -0.0000    0.0000 O   0  0  0  0  0  0  0  0  0  0  0  0
    9.0933    0.7500    0.0000 C   0  0  0  0  0  0  0  0  0  0  0  0
    9.0933    2.2500    0.0000 O   0  0  0  0  0  0  0  0  0  0  0  0
    7.7942   -0.0000    0.0000 N   0  0  0  0  0  0  0  0  0  0  0  0
    6.4952    0.7500    0.0000 C   0  0  0  0  0  0  0  0  0  0  0  0
    6.4952    2.2500    0.0000 O   0  0  0  0  0  0  0  0  0  0  0  0
    5.1962   -0.0000    0.0000 C   0  0  0  0  0  0  0  0  0  0  0  0
    3.8971    0.7500    0.0000 C   0  0  0  0  0  0  0  0  0  0  0  0
    2.5981   -0.0000    0.0000 C   0  0  0  0  0  0  0  0  0  0  0  0
    1.2990    0.7500    0.0000 N   0  0  0  0  0  0  0  0  0  0  0  0
    2.5981   -1.5000    0.0000 C   0  0  0  0  0  0  0  0  0  0  0  0
    1.2990   -2.2500    0.0000 O   0  0  0  0  0  0  0  0  0  0  0  0
    7.7942   -1.5000    0.0000 C   0  0  0  0  0  0  0  0  0  0  0  0
    6.4952   -2.2500    0.0000 O   0  0  0  0  0  0  0  0  0  0  0  0
    9.0933   -2.2500    0.0000 O   0  0  0  0  0  0  0  0  0  0  0  0
    9.0933   -3.7500    0.0000 C   0  0  0  0  0  0  0  0  0  0  0  0
   10.3923   -4.5000    0.0000 C   0  0  0  0  0  0  0  0  0  0  0  0
    0.0000    0.0000    0.0000 R#  0  0  0  0  0  0  0  0  0  0  0  0
    3.8971   -2.2500    0.0000 R#  0  0  0  0  0  0  0  0  0  0  0  0
  1  2  1  0
  2  3  1  0
  3  4  1  0
  4  5  2  0
  4  6  1  0
  6  7  1  0
  7  8  2  0
  7  9  1  0
  9 10  1  0
 11 10  1  1
 11 12  1  0
 12 20  1  0
 11 13  1  0
 13 21  1  0
 13 14  2  0
  6 15  1  0
 15 16  2  0
 15 17  1  0
 17 18  1  0
 18 19  1  0
M  RGP  2  20   1  21   2
V   20 *
V   21 *
M  END
>  <symbol>  (267)
Mono72

>  <m_abbr>  (267)
Mono72

>  <m_type>  (267)
aa

>  <m_subtype>  (267)
non-natural

>  <m_RgroupIdx>  (267)
19,20,None,None

>  <m_Rgroups>  (267)
H,OH,None,None

>  <m_attachmentPointIdx>  (267)
11,12,None,None

>  <natAnalog>  (267)
Q

$$$$

     RDKit          2D

 20 19  0  0  0  0  0  0  0  0999 V2000
   11.6913    0.7500    0.0000 C   0  0  0  0  0  0  0  0  0  0  0  0
   10.3923   -0.0000    0.0000 C   0  0  0  0  0  0  0  0  0  0  0  0
    9.0933    0.7500    0.0000 O   0  0  0  0  0  0  0  0  0  0  0  0
    7.7942   -0.0000    0.0000 C   0  0  0  0  0  0  0  0  0  0  0  0
    7.7942   -1.5000    0.0000 O   0  0  0  0  0  0  0  0  0  0  0  0
    6.4952    0.7500    0.0000 N   0  0  0  0  0  0  0  0  0  0  0  0
    5.1962   -0.0000    0.0000 C   0  0  0  0  0  0  0  0  0  0  0  0
    5.1962   -1.5000    0.0000 O   0  0  0  0  0  0  0  0  0  0  0  0
    3.8971    0.7500    0.0000 C   0  0  0  0  0  0  0  0  0  0  0  0
    2.5981   -0.0000    0.0000 C   0  0  0  0  0  0  0  0  0  0  0  0
    1.2990    0.7500    0.0000 N   0  0  0  0  0  0  0  0  0  0  0  0
    2.5981   -1.5000    0.0000 C   0  0  0  0  0  0  0  0  0  0  0  0
    1.2990   -2.2500    0.0000 O   0  0  0  0  0  0  0  0  0  0  0  0
    6.4952    2.2500    0.0000 C   0  0  0  0  0  0  0  0  0  0  0  0
    5.1962    3.0000    0.0000 O   0  0  0  0  0  0  0  0  0  0  0  0
    7.7942    3.0000    0.0000 O   0  0  0  0  0  0  0  0  0  0  0  0
    7.7942    4.5000    0.0000 C   0  0  0  0  0  0  0  0  0  0  0  0
    9.0933    5.2500    0.0000 C   0  0  0  0  0  0  0  0  0  0  0  0
    0.0000    0.0000    0.0000 R#  0  0  0  0  0  0  0  0  0  0  0  0
    3.8971   -2.2500    0.0000 R#  0  0  0  0  0  0  0  0  0  0  0  0
  1  2  1  0
  2  3  1  0
  3  4  1  0
  4  5  2  0
  4  6  1  0
  6  7  1  0
  7  8  2  0
  7  9  1  0
 10  9  1  1
 10 11  1  0
 11 19  1  0
 10 12  1  0
 12 20  1  0
 12 13  2  0
  6 14  1  0
 14 15  2  0
 14 16  1  0
 16 17  1  0
 17 18  1  0
M  RGP  2  19   1  20   2
V   19 *
V   20 *
M  END
>  <symbol>  (268)
Mono73

>  <m_abbr>  (268)
Mono73

>  <m_type>  (268)
aa

>  <m_subtype>  (268)
non-natural

>  <m_RgroupIdx>  (268)
18,19,None,None

>  <m_Rgroups>  (268)
H,OH,None,None

>  <m_attachmentPointIdx>  (268)
10,11,None,None

>  <natAnalog>  (268)
N

$$$$

     RDKit          2D

 23 22  0  0  0  0  0  0  0  0999 V2000
   -4.5000   -2.5981    0.0000 C   0  0  0  0  0  0  0  0  0  0  0  0
   -3.0000   -2.5981    0.0000 C   0  0  0  0  0  0  0  0  0  0  0  0
   -2.2500   -1.2990    0.0000 O   0  0  0  0  0  0  0  0  0  0  0  0
   -0.7500   -1.2990    0.0000 C   0  0  0  0  0  0  0  0  0  0  0  0
    0.0000   -2.5981    0.0000 O   0  0  0  0  0  0  0  0  0  0  0  0
    0.0000    0.0000    0.0000 N   0  0  0  0  0  0  0  0  0  0  0  0
    1.5000    0.0000    0.0000 C   0  0  0  0  0  0  0  0  0  0  0  0
    2.2500    1.2990    0.0000 N   0  0  0  0  0  0  0  0  0  0  0  0
    3.7500    1.2990    0.0000 C   0  0  0  0  0  0  0  0  0  0  0  0
    4.5000    2.5981    0.0000 C   0  0  0  0  0  0  0  0  0  0  0  0
    6.0000    2.5981    0.0000 C   0  0  0  0  0  0  0  0  0  0  0  0
    6.7500    3.8971    0.0000 C   0  0  0  0  0  0  0  0  0  0  0  0
    6.0000    5.1962    0.0000 N   0  0  0  0  0  0  0  0  0  0  0  0
    8.2500    3.8971    0.0000 C   0  0  0  0  0  0  0  0  0  0  0  0
    9.0000    2.5981    0.0000 O   0  0  0  0  0  0  0  0  0  0  0  0
    2.2500   -1.2990    0.0000 N   0  0  0  0  0  0  0  0  0  0  0  0
    3.7500   -1.2990    0.0000 C   0  0  0  0  0  0  0  0  0  0  0  0
    4.5000   -0.0000    0.0000 O   0  0  0  0  0  0  0  0  0  0  0  0
    4.5000   -2.5981    0.0000 O   0  0  0  0  0  0  0  0  0  0  0  0
    6.0000   -2.5981    0.0000 C   0  0  0  0  0  0  0  0  0  0  0  0
    6.7500   -3.8971    0.0000 C   0  0  0  0  0  0  0  0  0  0  0  0
    6.7500    6.4952    0.0000 R#  0  0  0  0  0  0  0  0  0  0  0  0
    9.0000    5.1962    0.0000 R#  0  0  0  0  0  0  0  0  0  0  0  0
  1  2  1  0
  2  3  1  0
  3  4  1  0
  4  5  2  0
  4  6  1  0
  6  7  2  0
  7  8  1  0
  8  9  1  0
  9 10  1  0
 10 11  1  0
 12 11  1  6
 12 13  1  0
 13 22  1  0
 12 14  1  0
 14 23  1  0
 14 15  2  0
  7 16  1  0
 16 17  1  0
 17 18  2  0
 17 19  1  0
 19 20  1  0
 20 21  1  0
M  RGP  2  22   1  23   2
V   22 *
V   23 *
M  END
>  <symbol>  (269)
Mono74

>  <m_abbr>  (269)
Mono74

>  <m_type>  (269)
aa

>  <m_subtype>  (269)
non-natural

>  <m_RgroupIdx>  (269)
21,22,None,None

>  <m_Rgroups>  (269)
H,OH,None,None

>  <m_attachmentPointIdx>  (269)
12,13,None,None

>  <natAnalog>  (269)
R

$$$$

     RDKit          2D

 17 17  0  0  0  0  0  0  0  0999 V2000
    3.0000   -7.7942    0.0000 N   0  0  0  0  0  0  0  0  0  0  0  0
    3.7500   -6.4952    0.0000 C   0  0  0  0  0  0  0  0  0  0  0  0
    3.0000   -5.1962    0.0000 C   0  0  0  0  0  0  0  0  0  0  0  0
    3.7500   -3.8971    0.0000 C   0  0  0  0  0  0  0  0  0  0  0  0
    3.0000   -2.5981    0.0000 N   0  0  0  0  0  0  0  0  0  0  0  0
    3.7500   -1.2990    0.0000 C   0  0  0  0  0  0  0  0  0  0  0  0
    3.0000    0.0000    0.0000 C   0  0  0  0  0  0  0  0  0  0  0  0
    1.5000    0.0000    0.0000 C   0  0  0  0  0  0  0  0  0  0  0  0
    0.7500   -1.2990    0.0000 C   0  0  0  0  0  0  0  0  0  0  0  0
   -0.7500   -1.2990    0.0000 C   0  0  0  0  0  0  0  0  0  0  0  0
   -1.5000    0.0000    0.0000 C   0  0  0  0  0  0  0  0  0  0  0  0
   -0.7500    1.2990    0.0000 C   0  0  0  0  0  0  0  0  0  0  0  0
    0.7500    1.2990    0.0000 C   0  0  0  0  0  0  0  0  0  0  0  0
    5.2500   -1.2990    0.0000 C   0  0  0  0  0  0  0  0  0  0  0  0
    6.0000    0.0000    0.0000 O   0  0  0  0  0  0  0  0  0  0  0  0
    3.7500   -9.0933    0.0000 R#  0  0  0  0  0  0  0  0  0  0  0  0
    6.0000   -2.5981    0.0000 R#  0  0  0  0  0  0  0  0  0  0  0  0
 16  1  1  0
  1  2  1  0
  2  3  1  0
  3  4  1  0
  4  5  1  0
  5  6  1  0
  6  7  1  1
  7  8  1  0
  8  9  2  0
  9 10  1  0
 10 11  2  0
 11 12  1  0
 12 13  2  0
  6 14  1  0
 14 17  1  0
 14 15  2  0
 13  8  1  0
M  RGP  2  16   1  17   2
V   16 *
V   17 *
M  END
>  <symbol>  (270)
Mono75

>  <m_abbr>  (270)
Mono75

>  <m_type>  (270)
aa

>  <m_subtype>  (270)
non-natural

>  <m_RgroupIdx>  (270)
15,16,None,None

>  <m_Rgroups>  (270)
H,OH,None,None

>  <m_attachmentPointIdx>  (270)
0,13,None,None

>  <natAnalog>  (270)
F

$$$$

     RDKit          2D

 18 18  0  0  0  0  0  0  0  0999 V2000
    3.7500   -9.0933    0.0000 N   0  0  0  0  0  0  0  0  0  0  0  0
    3.0000   -7.7942    0.0000 C   0  0  0  0  0  0  0  0  0  0  0  0
    3.7500   -6.4952    0.0000 C   0  0  0  0  0  0  0  0  0  0  0  0
    3.0000   -5.1962    0.0000 C   0  0  0  0  0  0  0  0  0  0  0  0
    3.7500   -3.8971    0.0000 C   0  0  0  0  0  0  0  0  0  0  0  0
    3.0000   -2.5981    0.0000 N   0  0  0  0  0  0  0  0  0  0  0  0
    3.7500   -1.2990    0.0000 C   0  0  0  0  0  0  0  0  0  0  0  0
    3.0000    0.0000    0.0000 C   0  0  0  0  0  0  0  0  0  0  0  0
    1.5000    0.0000    0.0000 C   0  0  0  0  0  0  0  0  0  0  0  0
    0.7500   -1.2990    0.0000 C   0  0  0  0  0  0  0  0  0  0  0  0
   -0.7500   -1.2990    0.0000 C   0  0  0  0  0  0  0  0  0  0  0  0
   -1.5000    0.0000    0.0000 C   0  0  0  0  0  0  0  0  0  0  0  0
   -0.7500    1.2990    0.0000 C   0  0  0  0  0  0  0  0  0  0  0  0
    0.7500    1.2990    0.0000 C   0  0  0  0  0  0  0  0  0  0  0  0
    5.2500   -1.2990    0.0000 C   0  0  0  0  0  0  0  0  0  0  0  0
    6.0000    0.0000    0.0000 O   0  0  0  0  0  0  0  0  0  0  0  0
    3.0000  -10.3923    0.0000 R#  0  0  0  0  0  0  0  0  0  0  0  0
    6.0000   -2.5981    0.0000 R#  0  0  0  0  0  0  0  0  0  0  0  0
 17  1  1  0
  1  2  1  0
  2  3  1  0
  3  4  1  0
  4  5  1  0
  5  6  1  0
  6  7  1  0
  7  8  1  1
  8  9  1  0
  9 10  2  0
 10 11  1  0
 11 12  2  0
 12 13  1  0
 13 14  2  0
  7 15  1  0
 15 18  1  0
 15 16  2  0
 14  9  1  0
M  RGP  2  17   1  18   2
V   17 *
V   18 *
M  END
>  <symbol>  (271)
Mono76

>  <m_abbr>  (271)
Mono76

>  <m_type>  (271)
aa

>  <m_subtype>  (271)
non-natural

>  <m_RgroupIdx>  (271)
16,17,None,None

>  <m_Rgroups>  (271)
H,OH,None,None

>  <m_attachmentPointIdx>  (271)
0,14,None,None

>  <natAnalog>  (271)
F

$$$$

     RDKit          2D

 19 19  0  0  0  0  0  0  0  0999 V2000
    3.0000  -10.3923    0.0000 N   0  0  0  0  0  0  0  0  0  0  0  0
    3.7500   -9.0933    0.0000 C   0  0  0  0  0  0  0  0  0  0  0  0
    3.0000   -7.7942    0.0000 C   0  0  0  0  0  0  0  0  0  0  0  0
    3.7500   -6.4952    0.0000 C   0  0  0  0  0  0  0  0  0  0  0  0
    3.0000   -5.1962    0.0000 C   0  0  0  0  0  0  0  0  0  0  0  0
    3.7500   -3.8971    0.0000 C   0  0  0  0  0  0  0  0  0  0  0  0
    3.0000   -2.5981    0.0000 N   0  0  0  0  0  0  0  0  0  0  0  0
    3.7500   -1.2990    0.0000 C   0  0  0  0  0  0  0  0  0  0  0  0
    3.0000    0.0000    0.0000 C   0  0  0  0  0  0  0  0  0  0  0  0
    1.5000    0.0000    0.0000 C   0  0  0  0  0  0  0  0  0  0  0  0
    0.7500   -1.2990    0.0000 C   0  0  0  0  0  0  0  0  0  0  0  0
   -0.7500   -1.2990    0.0000 C   0  0  0  0  0  0  0  0  0  0  0  0
   -1.5000    0.0000    0.0000 C   0  0  0  0  0  0  0  0  0  0  0  0
   -0.7500    1.2990    0.0000 C   0  0  0  0  0  0  0  0  0  0  0  0
    0.7500    1.2990    0.0000 C   0  0  0  0  0  0  0  0  0  0  0  0
    5.2500   -1.2990    0.0000 C   0  0  0  0  0  0  0  0  0  0  0  0
    6.0000    0.0000    0.0000 O   0  0  0  0  0  0  0  0  0  0  0  0
    3.7500  -11.6913    0.0000 R#  0  0  0  0  0  0  0  0  0  0  0  0
    6.0000   -2.5981    0.0000 R#  0  0  0  0  0  0  0  0  0  0  0  0
 18  1  1  0
  1  2  1  0
  2  3  1  0
  3  4  1  0
  4  5  1  0
  5  6  1  0
  6  7  1  0
  7  8  1  0
  8  9  1  1
  9 10  1  0
 10 11  2  0
 11 12  1  0
 12 13  2  0
 13 14  1  0
 14 15  2  0
  8 16  1  0
 16 19  1  0
 16 17  2  0
 15 10  1  0
M  RGP  2  18   1  19   2
V   18 *
V   19 *
M  END
>  <symbol>  (272)
Mono77

>  <m_abbr>  (272)
Mono77

>  <m_type>  (272)
aa

>  <m_subtype>  (272)
non-natural

>  <m_RgroupIdx>  (272)
17,18,None,None

>  <m_Rgroups>  (272)
H,OH,None,None

>  <m_attachmentPointIdx>  (272)
0,15,None,None

>  <natAnalog>  (272)
F

$$$$

     RDKit          2D

 20 20  0  0  0  0  0  0  0  0999 V2000
    3.7500  -11.6913    0.0000 N   0  0  0  0  0  0  0  0  0  0  0  0
    3.0000  -10.3923    0.0000 C   0  0  0  0  0  0  0  0  0  0  0  0
    3.7500   -9.0933    0.0000 C   0  0  0  0  0  0  0  0  0  0  0  0
    3.0000   -7.7942    0.0000 C   0  0  0  0  0  0  0  0  0  0  0  0
    3.7500   -6.4952    0.0000 C   0  0  0  0  0  0  0  0  0  0  0  0
    3.0000   -5.1962    0.0000 C   0  0  0  0  0  0  0  0  0  0  0  0
    3.7500   -3.8971    0.0000 C   0  0  0  0  0  0  0  0  0  0  0  0
    3.0000   -2.5981    0.0000 N   0  0  0  0  0  0  0  0  0  0  0  0
    3.7500   -1.2990    0.0000 C   0  0  0  0  0  0  0  0  0  0  0  0
    3.0000    0.0000    0.0000 C   0  0  0  0  0  0  0  0  0  0  0  0
    1.5000    0.0000    0.0000 C   0  0  0  0  0  0  0  0  0  0  0  0
    0.7500   -1.2990    0.0000 C   0  0  0  0  0  0  0  0  0  0  0  0
   -0.7500   -1.2990    0.0000 C   0  0  0  0  0  0  0  0  0  0  0  0
   -1.5000    0.0000    0.0000 C   0  0  0  0  0  0  0  0  0  0  0  0
   -0.7500    1.2990    0.0000 C   0  0  0  0  0  0  0  0  0  0  0  0
    0.7500    1.2990    0.0000 C   0  0  0  0  0  0  0  0  0  0  0  0
    5.2500   -1.2990    0.0000 C   0  0  0  0  0  0  0  0  0  0  0  0
    6.0000    0.0000    0.0000 O   0  0  0  0  0  0  0  0  0  0  0  0
    3.0000  -12.9904    0.0000 R#  0  0  0  0  0  0  0  0  0  0  0  0
    6.0000   -2.5981    0.0000 R#  0  0  0  0  0  0  0  0  0  0  0  0
 19  1  1  0
  1  2  1  0
  2  3  1  0
  3  4  1  0
  4  5  1  0
  5  6  1  0
  6  7  1  0
  7  8  1  0
  8  9  1  0
  9 10  1  1
 10 11  1  0
 11 12  2  0
 12 13  1  0
 13 14  2  0
 14 15  1  0
 15 16  2  0
  9 17  1  0
 17 20  1  0
 17 18  2  0
 16 11  1  0
M  RGP  2  19   1  20   2
V   19 *
V   20 *
M  END
>  <symbol>  (273)
Mono78

>  <m_abbr>  (273)
Mono78

>  <m_type>  (273)
aa

>  <m_subtype>  (273)
non-natural

>  <m_RgroupIdx>  (273)
18,19,None,None

>  <m_Rgroups>  (273)
H,OH,None,None

>  <m_attachmentPointIdx>  (273)
0,16,None,None

>  <natAnalog>  (273)
F

$$$$

     RDKit          2D

 21 21  0  0  0  0  0  0  0  0999 V2000
    3.0000  -12.9904    0.0000 N   0  0  0  0  0  0  0  0  0  0  0  0
    3.7500  -11.6913    0.0000 C   0  0  0  0  0  0  0  0  0  0  0  0
    3.0000  -10.3923    0.0000 C   0  0  0  0  0  0  0  0  0  0  0  0
    3.7500   -9.0933    0.0000 C   0  0  0  0  0  0  0  0  0  0  0  0
    3.0000   -7.7942    0.0000 C   0  0  0  0  0  0  0  0  0  0  0  0
    3.7500   -6.4952    0.0000 C   0  0  0  0  0  0  0  0  0  0  0  0
    3.0000   -5.1962    0.0000 C   0  0  0  0  0  0  0  0  0  0  0  0
    3.7500   -3.8971    0.0000 C   0  0  0  0  0  0  0  0  0  0  0  0
    3.0000   -2.5981    0.0000 N   0  0  0  0  0  0  0  0  0  0  0  0
    3.7500   -1.2990    0.0000 C   0  0  0  0  0  0  0  0  0  0  0  0
    3.0000    0.0000    0.0000 C   0  0  0  0  0  0  0  0  0  0  0  0
    1.5000    0.0000    0.0000 C   0  0  0  0  0  0  0  0  0  0  0  0
    0.7500   -1.2990    0.0000 C   0  0  0  0  0  0  0  0  0  0  0  0
   -0.7500   -1.2990    0.0000 C   0  0  0  0  0  0  0  0  0  0  0  0
   -1.5000    0.0000    0.0000 C   0  0  0  0  0  0  0  0  0  0  0  0
   -0.7500    1.2990    0.0000 C   0  0  0  0  0  0  0  0  0  0  0  0
    0.7500    1.2990    0.0000 C   0  0  0  0  0  0  0  0  0  0  0  0
    5.2500   -1.2990    0.0000 C   0  0  0  0  0  0  0  0  0  0  0  0
    6.0000    0.0000    0.0000 O   0  0  0  0  0  0  0  0  0  0  0  0
    3.7500  -14.2894    0.0000 R#  0  0  0  0  0  0  0  0  0  0  0  0
    6.0000   -2.5981    0.0000 R#  0  0  0  0  0  0  0  0  0  0  0  0
 20  1  1  0
  1  2  1  0
  2  3  1  0
  3  4  1  0
  4  5  1  0
  5  6  1  0
  6  7  1  0
  7  8  1  0
  8  9  1  0
  9 10  1  0
 10 11  1  1
 11 12  1  0
 12 13  2  0
 13 14  1  0
 14 15  2  0
 15 16  1  0
 16 17  2  0
 10 18  1  0
 18 21  1  0
 18 19  2  0
 17 12  1  0
M  RGP  2  20   1  21   2
V   20 *
V   21 *
M  END
>  <symbol>  (274)
Mono79

>  <m_abbr>  (274)
Mono79

>  <m_type>  (274)
aa

>  <m_subtype>  (274)
non-natural

>  <m_RgroupIdx>  (274)
19,20,None,None

>  <m_Rgroups>  (274)
H,OH,None,None

>  <m_attachmentPointIdx>  (274)
0,17,None,None

>  <natAnalog>  (274)
F

$$$$

     RDKit          2D

 22 22  0  0  0  0  0  0  0  0999 V2000
    3.7500  -14.2894    0.0000 N   0  0  0  0  0  0  0  0  0  0  0  0
    3.0000  -12.9904    0.0000 C   0  0  0  0  0  0  0  0  0  0  0  0
    3.7500  -11.6913    0.0000 C   0  0  0  0  0  0  0  0  0  0  0  0
    3.0000  -10.3923    0.0000 C   0  0  0  0  0  0  0  0  0  0  0  0
    3.7500   -9.0933    0.0000 C   0  0  0  0  0  0  0  0  0  0  0  0
    3.0000   -7.7942    0.0000 C   0  0  0  0  0  0  0  0  0  0  0  0
    3.7500   -6.4952    0.0000 C   0  0  0  0  0  0  0  0  0  0  0  0
    3.0000   -5.1962    0.0000 C   0  0  0  0  0  0  0  0  0  0  0  0
    3.7500   -3.8971    0.0000 C   0  0  0  0  0  0  0  0  0  0  0  0
    3.0000   -2.5981    0.0000 N   0  0  0  0  0  0  0  0  0  0  0  0
    3.7500   -1.2990    0.0000 C   0  0  0  0  0  0  0  0  0  0  0  0
    3.0000    0.0000    0.0000 C   0  0  0  0  0  0  0  0  0  0  0  0
    1.5000    0.0000    0.0000 C   0  0  0  0  0  0  0  0  0  0  0  0
    0.7500   -1.2990    0.0000 C   0  0  0  0  0  0  0  0  0  0  0  0
   -0.7500   -1.2990    0.0000 C   0  0  0  0  0  0  0  0  0  0  0  0
   -1.5000    0.0000    0.0000 C   0  0  0  0  0  0  0  0  0  0  0  0
   -0.7500    1.2990    0.0000 C   0  0  0  0  0  0  0  0  0  0  0  0
    0.7500    1.2990    0.0000 C   0  0  0  0  0  0  0  0  0  0  0  0
    5.2500   -1.2990    0.0000 C   0  0  0  0  0  0  0  0  0  0  0  0
    6.0000    0.0000    0.0000 O   0  0  0  0  0  0  0  0  0  0  0  0
    3.0000  -15.5885    0.0000 R#  0  0  0  0  0  0  0  0  0  0  0  0
    6.0000   -2.5981    0.0000 R#  0  0  0  0  0  0  0  0  0  0  0  0
 21  1  1  0
  1  2  1  0
  2  3  1  0
  3  4  1  0
  4  5  1  0
  5  6  1  0
  6  7  1  0
  7  8  1  0
  8  9  1  0
  9 10  1  0
 10 11  1  0
 11 12  1  1
 12 13  1  0
 13 14  2  0
 14 15  1  0
 15 16  2  0
 16 17  1  0
 17 18  2  0
 11 19  1  0
 19 22  1  0
 19 20  2  0
 18 13  1  0
M  RGP  2  21   1  22   2
V   21 *
V   22 *
M  END
>  <symbol>  (275)
Mono80

>  <m_abbr>  (275)
Mono80

>  <m_type>  (275)
aa

>  <m_subtype>  (275)
non-natural

>  <m_RgroupIdx>  (275)
20,21,None,None

>  <m_Rgroups>  (275)
H,OH,None,None

>  <m_attachmentPointIdx>  (275)
0,18,None,None

>  <natAnalog>  (275)
F

$$$$

     RDKit          2D

 23 23  0  0  0  0  0  0  0  0999 V2000
    3.0000  -15.5885    0.0000 N   0  0  0  0  0  0  0  0  0  0  0  0
    3.7500  -14.2894    0.0000 C   0  0  0  0  0  0  0  0  0  0  0  0
    3.0000  -12.9904    0.0000 C   0  0  0  0  0  0  0  0  0  0  0  0
    3.7500  -11.6913    0.0000 C   0  0  0  0  0  0  0  0  0  0  0  0
    3.0000  -10.3923    0.0000 C   0  0  0  0  0  0  0  0  0  0  0  0
    3.7500   -9.0933    0.0000 C   0  0  0  0  0  0  0  0  0  0  0  0
    3.0000   -7.7942    0.0000 C   0  0  0  0  0  0  0  0  0  0  0  0
    3.7500   -6.4952    0.0000 C   0  0  0  0  0  0  0  0  0  0  0  0
    3.0000   -5.1962    0.0000 C   0  0  0  0  0  0  0  0  0  0  0  0
    3.7500   -3.8971    0.0000 C   0  0  0  0  0  0  0  0  0  0  0  0
    3.0000   -2.5981    0.0000 N   0  0  0  0  0  0  0  0  0  0  0  0
    3.7500   -1.2990    0.0000 C   0  0  0  0  0  0  0  0  0  0  0  0
    3.0000    0.0000    0.0000 C   0  0  0  0  0  0  0  0  0  0  0  0
    1.5000    0.0000    0.0000 C   0  0  0  0  0  0  0  0  0  0  0  0
    0.7500   -1.2990    0.0000 C   0  0  0  0  0  0  0  0  0  0  0  0
   -0.7500   -1.2990    0.0000 C   0  0  0  0  0  0  0  0  0  0  0  0
   -1.5000    0.0000    0.0000 C   0  0  0  0  0  0  0  0  0  0  0  0
   -0.7500    1.2990    0.0000 C   0  0  0  0  0  0  0  0  0  0  0  0
    0.7500    1.2990    0.0000 C   0  0  0  0  0  0  0  0  0  0  0  0
    5.2500   -1.2990    0.0000 C   0  0  0  0  0  0  0  0  0  0  0  0
    6.0000    0.0000    0.0000 O   0  0  0  0  0  0  0  0  0  0  0  0
    3.7500  -16.8875    0.0000 R#  0  0  0  0  0  0  0  0  0  0  0  0
    6.0000   -2.5981    0.0000 R#  0  0  0  0  0  0  0  0  0  0  0  0
 22  1  1  0
  1  2  1  0
  2  3  1  0
  3  4  1  0
  4  5  1  0
  5  6  1  0
  6  7  1  0
  7  8  1  0
  8  9  1  0
  9 10  1  0
 10 11  1  0
 11 12  1  0
 12 13  1  1
 13 14  1  0
 14 15  2  0
 15 16  1  0
 16 17  2  0
 17 18  1  0
 18 19  2  0
 12 20  1  0
 20 23  1  0
 20 21  2  0
 19 14  1  0
M  RGP  2  22   1  23   2
V   22 *
V   23 *
M  END
>  <symbol>  (276)
Mono81

>  <m_abbr>  (276)
Mono81

>  <m_type>  (276)
aa

>  <m_subtype>  (276)
non-natural

>  <m_RgroupIdx>  (276)
21,22,None,None

>  <m_Rgroups>  (276)
H,OH,None,None

>  <m_attachmentPointIdx>  (276)
0,19,None,None

>  <natAnalog>  (276)
F

$$$$

     RDKit          2D

 24 24  0  0  0  0  0  0  0  0999 V2000
    3.7500  -16.8875    0.0000 N   0  0  0  0  0  0  0  0  0  0  0  0
    3.0000  -15.5885    0.0000 C   0  0  0  0  0  0  0  0  0  0  0  0
    3.7500  -14.2894    0.0000 C   0  0  0  0  0  0  0  0  0  0  0  0
    3.0000  -12.9904    0.0000 C   0  0  0  0  0  0  0  0  0  0  0  0
    3.7500  -11.6913    0.0000 C   0  0  0  0  0  0  0  0  0  0  0  0
    3.0000  -10.3923    0.0000 C   0  0  0  0  0  0  0  0  0  0  0  0
    3.7500   -9.0933    0.0000 C   0  0  0  0  0  0  0  0  0  0  0  0
    3.0000   -7.7942    0.0000 C   0  0  0  0  0  0  0  0  0  0  0  0
    3.7500   -6.4952    0.0000 C   0  0  0  0  0  0  0  0  0  0  0  0
    3.0000   -5.1962    0.0000 C   0  0  0  0  0  0  0  0  0  0  0  0
    3.7500   -3.8971    0.0000 C   0  0  0  0  0  0  0  0  0  0  0  0
    3.0000   -2.5981    0.0000 N   0  0  0  0  0  0  0  0  0  0  0  0
    3.7500   -1.2990    0.0000 C   0  0  0  0  0  0  0  0  0  0  0  0
    3.0000    0.0000    0.0000 C   0  0  0  0  0  0  0  0  0  0  0  0
    1.5000    0.0000    0.0000 C   0  0  0  0  0  0  0  0  0  0  0  0
    0.7500   -1.2990    0.0000 C   0  0  0  0  0  0  0  0  0  0  0  0
   -0.7500   -1.2990    0.0000 C   0  0  0  0  0  0  0  0  0  0  0  0
   -1.5000    0.0000    0.0000 C   0  0  0  0  0  0  0  0  0  0  0  0
   -0.7500    1.2990    0.0000 C   0  0  0  0  0  0  0  0  0  0  0  0
    0.7500    1.2990    0.0000 C   0  0  0  0  0  0  0  0  0  0  0  0
    5.2500   -1.2990    0.0000 C   0  0  0  0  0  0  0  0  0  0  0  0
    6.0000    0.0000    0.0000 O   0  0  0  0  0  0  0  0  0  0  0  0
    3.0000  -18.1865    0.0000 R#  0  0  0  0  0  0  0  0  0  0  0  0
    6.0000   -2.5981    0.0000 R#  0  0  0  0  0  0  0  0  0  0  0  0
 23  1  1  0
  1  2  1  0
  2  3  1  0
  3  4  1  0
  4  5  1  0
  5  6  1  0
  6  7  1  0
  7  8  1  0
  8  9  1  0
  9 10  1  0
 10 11  1  0
 11 12  1  0
 12 13  1  0
 13 14  1  1
 14 15  1  0
 15 16  2  0
 16 17  1  0
 17 18  2  0
 18 19  1  0
 19 20  2  0
 13 21  1  0
 21 24  1  0
 21 22  2  0
 20 15  1  0
M  RGP  2  23   1  24   2
V   23 *
V   24 *
M  END
>  <symbol>  (277)
Mono82

>  <m_abbr>  (277)
Mono82

>  <m_type>  (277)
aa

>  <m_subtype>  (277)
non-natural

>  <m_RgroupIdx>  (277)
22,23,None,None

>  <m_Rgroups>  (277)
H,OH,None,None

>  <m_attachmentPointIdx>  (277)
0,20,None,None

>  <natAnalog>  (277)
F

$$$$

     RDKit          2D

 13 12  0  0  0  0  0  0  0  0999 V2000
    1.2990    0.7500    0.0000 N   0  0  0  0  0  0  0  0  0  0  0  0
    2.5981   -0.0000    0.0000 C   0  0  0  0  0  0  0  0  0  0  0  0
    3.8971    0.7500    0.0000 C   0  0  0  0  0  0  0  0  0  0  0  0
    5.1962   -0.0000    0.0000 C   0  0  0  0  0  0  0  0  0  0  0  0
    6.4952    0.7500    0.0000 C   0  0  0  0  0  0  0  0  0  0  0  0
    7.7942   -0.0000    0.0000 C   0  0  0  0  0  0  0  0  0  0  0  0
    9.0933    0.7500    0.0000 C   0  0  0  0  0  0  0  0  0  0  0  0
   10.3923   -0.0000    0.0000 N   0  0  0  0  0  0  0  0  0  0  0  0
   11.6913    0.7500    0.0000 C   0  0  0  0  0  0  0  0  0  0  0  0
   12.9904   -0.0000    0.0000 C   0  0  0  0  0  0  0  0  0  0  0  0
   12.9904   -1.5000    0.0000 O   0  0  0  0  0  0  0  0  0  0  0  0
    0.0000    0.0000    0.0000 R#  0  0  0  0  0  0  0  0  0  0  0  0
   14.2894    0.7500    0.0000 R#  0  0  0  0  0  0  0  0  0  0  0  0
 12  1  1  0
  1  2  1  0
  2  3  1  0
  3  4  1  0
  4  5  1  0
  5  6  1  0
  6  7  1  0
  7  8  1  0
  8  9  1  0
  9 10  1  0
 10 13  1  0
 10 11  2  0
M  RGP  2  12   1  13   2
V   12 *
V   13 *
M  END
>  <m_name>  (278)
N-(6-aminohexyl)glycine

>  <symbol>  (278)
Mono83

>  <m_abbr>  (278)
Mono83

>  <m_type>  (278)
aa

>  <m_subtype>  (278)
non-natural

>  <m_RgroupIdx>  (278)
11,12,None,None

>  <m_Rgroups>  (278)
H,OH,None,None

>  <m_attachmentPointIdx>  (278)
0,9,None,None

>  <natAnalog>  (278)
G

$$$$

     RDKit          2D

 14 13  0  0  0  0  0  0  0  0999 V2000
   12.9904   -0.0000    0.0000 C   0  0  0  0  0  0  0  0  0  0  0  0
   11.6913    0.7500    0.0000 C   0  0  0  0  0  0  0  0  0  0  0  0
   10.3923   -0.0000    0.0000 N   0  0  0  0  0  0  0  0  0  0  0  0
    9.0933    0.7500    0.0000 C   0  0  0  0  0  0  0  0  0  0  0  0
    7.7942   -0.0000    0.0000 C   0  0  0  0  0  0  0  0  0  0  0  0
    6.4952    0.7500    0.0000 C   0  0  0  0  0  0  0  0  0  0  0  0
    5.1962   -0.0000    0.0000 C   0  0  0  0  0  0  0  0  0  0  0  0
    3.8971    0.7500    0.0000 C   0  0  0  0  0  0  0  0  0  0  0  0
    2.5981   -0.0000    0.0000 C   0  0  0  0  0  0  0  0  0  0  0  0
    1.2990    0.7500    0.0000 N   0  0  0  0  0  0  0  0  0  0  0  0
   11.6913    2.2500    0.0000 C   0  0  0  0  0  0  0  0  0  0  0  0
   10.3923    3.0000    0.0000 O   0  0  0  0  0  0  0  0  0  0  0  0
    0.0000    0.0000    0.0000 R#  0  0  0  0  0  0  0  0  0  0  0  0
   12.9904    3.0000    0.0000 R#  0  0  0  0  0  0  0  0  0  0  0  0
  2  1  1  6
  2  3  1  0
  3  4  1  0
  4  5  1  0
  5  6  1  0
  6  7  1  0
  7  8  1  0
  8  9  1  0
  9 10  1  0
 10 13  1  0
  2 11  1  0
 11 14  1  0
 11 12  2  0
M  RGP  2  13   1  14   2
V   13 *
V   14 *
M  END
>  <symbol>  (279)
Mono84

>  <m_abbr>  (279)
Mono84

>  <m_type>  (279)
aa

>  <m_subtype>  (279)
non-natural

>  <m_RgroupIdx>  (279)
12,13,None,None

>  <m_Rgroups>  (279)
H,OH,None,None

>  <m_attachmentPointIdx>  (279)
9,10,None,None

>  <natAnalog>  (279)
A

$$$$

     RDKit          2D

 14 13  0  0  0  0  0  0  0  0999 V2000
   12.9904   -0.0000    0.0000 C   0  0  0  0  0  0  0  0  0  0  0  0
   11.6913    0.7500    0.0000 C   0  0  0  0  0  0  0  0  0  0  0  0
   10.3923   -0.0000    0.0000 N   0  0  0  0  0  0  0  0  0  0  0  0
    9.0933    0.7500    0.0000 C   0  0  0  0  0  0  0  0  0  0  0  0
    7.7942   -0.0000    0.0000 C   0  0  0  0  0  0  0  0  0  0  0  0
    6.4952    0.7500    0.0000 C   0  0  0  0  0  0  0  0  0  0  0  0
    5.1962   -0.0000    0.0000 C   0  0  0  0  0  0  0  0  0  0  0  0
    3.8971    0.7500    0.0000 C   0  0  0  0  0  0  0  0  0  0  0  0
    2.5981   -0.0000    0.0000 C   0  0  0  0  0  0  0  0  0  0  0  0
    1.2990    0.7500    0.0000 N   0  0  0  0  0  0  0  0  0  0  0  0
   11.6913    2.2500    0.0000 C   0  0  0  0  0  0  0  0  0  0  0  0
   10.3923    3.0000    0.0000 O   0  0  0  0  0  0  0  0  0  0  0  0
    0.0000    0.0000    0.0000 R#  0  0  0  0  0  0  0  0  0  0  0  0
   12.9904    3.0000    0.0000 R#  0  0  0  0  0  0  0  0  0  0  0  0
  2  1  1  1
  2  3  1  0
  3  4  1  0
  4  5  1  0
  5  6  1  0
  6  7  1  0
  7  8  1  0
  8  9  1  0
  9 10  1  0
 10 13  1  0
  2 11  1  0
 11 14  1  0
 11 12  2  0
M  RGP  2  13   1  14   2
V   13 *
V   14 *
M  END
>  <symbol>  (280)
Mono85

>  <m_abbr>  (280)
Mono85

>  <m_type>  (280)
aa

>  <m_subtype>  (280)
non-natural

>  <m_RgroupIdx>  (280)
12,13,None,None

>  <m_Rgroups>  (280)
H,OH,None,None

>  <m_attachmentPointIdx>  (280)
9,10,None,None

>  <natAnalog>  (280)
A

$$$$

     RDKit          2D

 17 16  0  0  0  0  0  0  0  0999 V2000
   15.5885   -0.0000    0.0000 C   0  0  0  0  0  0  0  0  0  0  0  0
   14.2894    0.7500    0.0000 C   0  0  0  0  0  0  0  0  0  0  0  0
   14.2894    2.2500    0.0000 C   0  0  0  0  0  0  0  0  0  0  0  0
   12.9904   -0.0000    0.0000 C   0  0  0  0  0  0  0  0  0  0  0  0
   11.6913    0.7500    0.0000 C   0  0  0  0  0  0  0  0  0  0  0  0
   10.3923   -0.0000    0.0000 N   0  0  0  0  0  0  0  0  0  0  0  0
    9.0933    0.7500    0.0000 C   0  0  0  0  0  0  0  0  0  0  0  0
    7.7942   -0.0000    0.0000 C   0  0  0  0  0  0  0  0  0  0  0  0
    6.4952    0.7500    0.0000 C   0  0  0  0  0  0  0  0  0  0  0  0
    5.1962   -0.0000    0.0000 C   0  0  0  0  0  0  0  0  0  0  0  0
    3.8971    0.7500    0.0000 C   0  0  0  0  0  0  0  0  0  0  0  0
    2.5981   -0.0000    0.0000 C   0  0  0  0  0  0  0  0  0  0  0  0
    1.2990    0.7500    0.0000 N   0  0  0  0  0  0  0  0  0  0  0  0
   11.6913    2.2500    0.0000 C   0  0  0  0  0  0  0  0  0  0  0  0
   10.3923    3.0000    0.0000 O   0  0  0  0  0  0  0  0  0  0  0  0
    0.0000    0.0000    0.0000 R#  0  0  0  0  0  0  0  0  0  0  0  0
   12.9904    3.0000    0.0000 R#  0  0  0  0  0  0  0  0  0  0  0  0
  1  2  1  0
  2  3  1  0
  2  4  1  0
  5  4  1  6
  5  6  1  0
  6  7  1  0
  7  8  1  0
  8  9  1  0
  9 10  1  0
 10 11  1  0
 11 12  1  0
 12 13  1  0
 13 16  1  0
  5 14  1  0
 14 17  1  0
 14 15  2  0
M  RGP  2  16   1  17   2
V   16 *
V   17 *
M  END
>  <symbol>  (281)
Mono86

>  <m_abbr>  (281)
Mono86

>  <m_type>  (281)
aa

>  <m_subtype>  (281)
non-natural

>  <m_RgroupIdx>  (281)
15,16,None,None

>  <m_Rgroups>  (281)
H,OH,None,None

>  <m_attachmentPointIdx>  (281)
12,13,None,None

>  <natAnalog>  (281)
L

$$$$

     RDKit          2D

 20 20  0  0  0  0  0  0  0  0999 V2000
    3.7500  -11.6913    0.0000 N   0  0  0  0  0  0  0  0  0  0  0  0
    3.0000  -10.3923    0.0000 C   0  0  0  0  0  0  0  0  0  0  0  0
    3.7500   -9.0933    0.0000 C   0  0  0  0  0  0  0  0  0  0  0  0
    3.0000   -7.7942    0.0000 C   0  0  0  0  0  0  0  0  0  0  0  0
    3.7500   -6.4952    0.0000 C   0  0  0  0  0  0  0  0  0  0  0  0
    3.0000   -5.1962    0.0000 C   0  0  0  0  0  0  0  0  0  0  0  0
    3.7500   -3.8971    0.0000 C   0  0  0  0  0  0  0  0  0  0  0  0
    3.0000   -2.5981    0.0000 N   0  0  0  0  0  0  0  0  0  0  0  0
    3.7500   -1.2990    0.0000 C   0  0  0  0  0  0  0  0  0  0  0  0
    3.0000    0.0000    0.0000 C   0  0  0  0  0  0  0  0  0  0  0  0
    1.5000    0.0000    0.0000 C   0  0  0  0  0  0  0  0  0  0  0  0
    0.7500   -1.2990    0.0000 C   0  0  0  0  0  0  0  0  0  0  0  0
   -0.7500   -1.2990    0.0000 C   0  0  0  0  0  0  0  0  0  0  0  0
   -1.5000    0.0000    0.0000 C   0  0  0  0  0  0  0  0  0  0  0  0
   -0.7500    1.2990    0.0000 C   0  0  0  0  0  0  0  0  0  0  0  0
    0.7500    1.2990    0.0000 C   0  0  0  0  0  0  0  0  0  0  0  0
    5.2500   -1.2990    0.0000 C   0  0  0  0  0  0  0  0  0  0  0  0
    6.0000    0.0000    0.0000 O   0  0  0  0  0  0  0  0  0  0  0  0
    3.0000  -12.9904    0.0000 R#  0  0  0  0  0  0  0  0  0  0  0  0
    6.0000   -2.5981    0.0000 R#  0  0  0  0  0  0  0  0  0  0  0  0
 19  1  1  0
  1  2  1  0
  2  3  1  0
  3  4  1  0
  4  5  1  0
  5  6  1  0
  6  7  1  0
  7  8  1  0
  8  9  1  0
  9 10  1  6
 10 11  1  0
 11 12  2  0
 12 13  1  0
 13 14  2  0
 14 15  1  0
 15 16  2  0
  9 17  1  0
 17 20  1  0
 17 18  2  0
 16 11  1  0
M  RGP  2  19   1  20   2
V   19 *
V   20 *
M  END
>  <symbol>  (282)
Mono87

>  <m_abbr>  (282)
Mono87

>  <m_type>  (282)
aa

>  <m_subtype>  (282)
non-natural

>  <m_RgroupIdx>  (282)
18,19,None,None

>  <m_Rgroups>  (282)
H,OH,None,None

>  <m_attachmentPointIdx>  (282)
0,16,None,None

>  <natAnalog>  (282)
F

$$$$

     RDKit          2D

 21 21  0  0  0  0  0  0  0  0999 V2000
    3.7500   -3.8971    0.0000 C   0  0  0  0  0  0  0  0  0  0  0  0
    3.0000   -2.5981    0.0000 N   0  0  0  0  0  0  0  0  0  0  0  0
    1.5000   -2.5981    0.0000 C   0  0  0  0  0  0  0  0  0  0  0  0
    0.7500   -3.8971    0.0000 C   0  0  0  0  0  0  0  0  0  0  0  0
   -0.7500   -3.8971    0.0000 C   0  0  0  0  0  0  0  0  0  0  0  0
   -1.5000   -5.1962    0.0000 C   0  0  0  0  0  0  0  0  0  0  0  0
   -3.0000   -5.1962    0.0000 C   0  0  0  0  0  0  0  0  0  0  0  0
   -3.7500   -6.4952    0.0000 C   0  0  0  0  0  0  0  0  0  0  0  0
   -5.2500   -6.4952    0.0000 N   0  0  0  0  0  0  0  0  0  0  0  0
    3.7500   -1.2990    0.0000 C   0  0  0  0  0  0  0  0  0  0  0  0
    3.0000    0.0000    0.0000 C   0  0  0  0  0  0  0  0  0  0  0  0
    1.5000    0.0000    0.0000 C   0  0  0  0  0  0  0  0  0  0  0  0
    0.7500   -1.2990    0.0000 C   0  0  0  0  0  0  0  0  0  0  0  0
   -0.7500   -1.2990    0.0000 C   0  0  0  0  0  0  0  0  0  0  0  0
   -1.5000    0.0000    0.0000 C   0  0  0  0  0  0  0  0  0  0  0  0
   -0.7500    1.2990    0.0000 C   0  0  0  0  0  0  0  0  0  0  0  0
    0.7500    1.2990    0.0000 C   0  0  0  0  0  0  0  0  0  0  0  0
    5.2500   -1.2990    0.0000 C   0  0  0  0  0  0  0  0  0  0  0  0
    6.0000    0.0000    0.0000 O   0  0  0  0  0  0  0  0  0  0  0  0
   -6.0000   -7.7942    0.0000 R#  0  0  0  0  0  0  0  0  0  0  0  0
    6.0000   -2.5981    0.0000 R#  0  0  0  0  0  0  0  0  0  0  0  0
  1  2  1  0
  2  3  1  0
  3  4  1  0
  4  5  1  0
  5  6  1  0
  6  7  1  0
  7  8  1  0
  8  9  1  0
  9 20  1  0
  2 10  1  0
 10 11  1  1
 11 12  1  0
 12 13  2  0
 13 14  1  0
 14 15  2  0
 15 16  1  0
 16 17  2  0
 10 18  1  0
 18 21  1  0
 18 19  2  0
 17 12  1  0
M  RGP  2  20   1  21   2
V   20 *
V   21 *
M  END
>  <symbol>  (283)
Mono88

>  <m_abbr>  (283)
Mono88

>  <m_type>  (283)
aa

>  <m_subtype>  (283)
non-natural

>  <m_RgroupIdx>  (283)
19,20,None,None

>  <m_Rgroups>  (283)
H,OH,None,None

>  <m_attachmentPointIdx>  (283)
8,17,None,None

>  <natAnalog>  (283)
F

$$$$

     RDKit          2D

 20 20  0  0  0  0  0  0  0  0999 V2000
   12.0000   -5.1962    0.0000 N   0  0  0  0  0  0  0  0  0  0  0  0
   10.5000   -5.1962    0.0000 C   0  0  0  0  0  0  0  0  0  0  0  0
    9.7500   -3.8971    0.0000 C   0  0  0  0  0  0  0  0  0  0  0  0
    8.2500   -3.8971    0.0000 C   0  0  0  0  0  0  0  0  0  0  0  0
    7.5000   -2.5981    0.0000 C   0  0  0  0  0  0  0  0  0  0  0  0
    6.0000   -2.5981    0.0000 C   0  0  0  0  0  0  0  0  0  0  0  0
    5.2500   -1.2990    0.0000 C   0  0  0  0  0  0  0  0  0  0  0  0
    3.7500   -1.2990    0.0000 N   0  0  0  0  0  0  0  0  0  0  0  0
    3.0000   -2.5981    0.0000 C   0  0  0  0  0  0  0  0  0  0  0  0
    3.7500   -3.8971    0.0000 C   0  0  0  0  0  0  0  0  0  0  0  0
    5.2500   -3.8971    0.0000 O   0  0  0  0  0  0  0  0  0  0  0  0
    3.0000    0.0000    0.0000 C   0  0  0  0  0  0  0  0  0  0  0  0
    1.5000    0.0000    0.0000 C   0  0  0  0  0  0  0  0  0  0  0  0
    0.7500   -1.2990    0.0000 C   0  0  0  0  0  0  0  0  0  0  0  0
   -0.7500   -1.2990    0.0000 C   0  0  0  0  0  0  0  0  0  0  0  0
   -1.5000    0.0000    0.0000 C   0  0  0  0  0  0  0  0  0  0  0  0
   -0.7500    1.2990    0.0000 C   0  0  0  0  0  0  0  0  0  0  0  0
    0.7500    1.2990    0.0000 C   0  0  0  0  0  0  0  0  0  0  0  0
   12.7500   -6.4952    0.0000 R#  0  0  0  0  0  0  0  0  0  0  0  0
    3.0000   -5.1962    0.0000 R#  0  0  0  0  0  0  0  0  0  0  0  0
 19  1  1  0
  1  2  1  0
  2  3  1  0
  3  4  1  0
  4  5  1  0
  5  6  1  0
  6  7  1  0
  7  8  1  0
  8  9  1  0
  9 10  1  0
 10 20  1  0
 10 11  2  0
  8 12  1  0
 12 13  1  0
 13 14  2  0
 14 15  1  0
 15 16  2  0
 16 17  1  0
 17 18  2  0
 18 13  1  0
M  RGP  2  19   1  20   2
V   19 *
V   20 *
M  END
>  <symbol>  (284)
Mono89

>  <m_abbr>  (284)
Mono89

>  <m_type>  (284)
aa

>  <m_subtype>  (284)
non-natural

>  <m_RgroupIdx>  (284)
18,19,None,None

>  <m_Rgroups>  (284)
H,OH,None,None

>  <m_attachmentPointIdx>  (284)
0,9,None,None

>  <natAnalog>  (284)
F

$$$$

     RDKit          2D

 21 21  0  0  0  0  0  0  0  0999 V2000
    5.2500  -11.6913    0.0000 C   0  0  0  0  0  0  0  0  0  0  0  0
    3.7500  -11.6913    0.0000 N   0  0  0  0  0  0  0  0  0  0  0  0
    3.0000  -10.3923    0.0000 C   0  0  0  0  0  0  0  0  0  0  0  0
    3.7500   -9.0933    0.0000 C   0  0  0  0  0  0  0  0  0  0  0  0
    3.0000   -7.7942    0.0000 C   0  0  0  0  0  0  0  0  0  0  0  0
    3.7500   -6.4952    0.0000 C   0  0  0  0  0  0  0  0  0  0  0  0
    3.0000   -5.1962    0.0000 C   0  0  0  0  0  0  0  0  0  0  0  0
    3.7500   -3.8971    0.0000 C   0  0  0  0  0  0  0  0  0  0  0  0
    3.0000   -2.5981    0.0000 N   0  0  0  0  0  0  0  0  0  0  0  0
    3.7500   -1.2990    0.0000 C   0  0  0  0  0  0  0  0  0  0  0  0
    3.0000    0.0000    0.0000 C   0  0  0  0  0  0  0  0  0  0  0  0
    1.5000    0.0000    0.0000 C   0  0  0  0  0  0  0  0  0  0  0  0
    0.7500   -1.2990    0.0000 C   0  0  0  0  0  0  0  0  0  0  0  0
   -0.7500   -1.2990    0.0000 C   0  0  0  0  0  0  0  0  0  0  0  0
   -1.5000    0.0000    0.0000 C   0  0  0  0  0  0  0  0  0  0  0  0
   -0.7500    1.2990    0.0000 C   0  0  0  0  0  0  0  0  0  0  0  0
    0.7500    1.2990    0.0000 C   0  0  0  0  0  0  0  0  0  0  0  0
    5.2500   -1.2990    0.0000 C   0  0  0  0  0  0  0  0  0  0  0  0
    6.0000    0.0000    0.0000 O   0  0  0  0  0  0  0  0  0  0  0  0
    3.0000  -12.9904    0.0000 R#  0  0  0  0  0  0  0  0  0  0  0  0
    6.0000   -2.5981    0.0000 R#  0  0  0  0  0  0  0  0  0  0  0  0
  1  2  1  0
  2 20  1  0
  2  3  1  0
  3  4  1  0
  4  5  1  0
  5  6  1  0
  6  7  1  0
  7  8  1  0
  8  9  1  0
  9 10  1  0
 10 11  1  1
 11 12  1  0
 12 13  2  0
 13 14  1  0
 14 15  2  0
 15 16  1  0
 16 17  2  0
 10 18  1  0
 18 21  1  0
 18 19  2  0
 17 12  1  0
M  RGP  2  20   1  21   2
V   20 *
V   21 *
M  END
>  <symbol>  (285)
Mono90

>  <m_abbr>  (285)
Mono90

>  <m_type>  (285)
aa

>  <m_subtype>  (285)
non-natural

>  <m_RgroupIdx>  (285)
19,20,None,None

>  <m_Rgroups>  (285)
H,OH,None,None

>  <m_attachmentPointIdx>  (285)
1,17,None,None

>  <natAnalog>  (285)
F

$$$$

     RDKit          2D

 23 23  0  0  0  0  0  0  0  0999 V2000
    0.7500   -3.8971    0.0000 C   0  0  0  0  0  0  0  0  0  0  0  0
    1.5000   -2.5981    0.0000 C   0  0  0  0  0  0  0  0  0  0  0  0
    0.7500   -1.2990    0.0000 O   0  0  0  0  0  0  0  0  0  0  0  0
    3.0000   -2.5981    0.0000 N   0  0  0  0  0  0  0  0  0  0  0  0
    3.7500   -3.8971    0.0000 C   0  0  0  0  0  0  0  0  0  0  0  0
    3.0000   -5.1962    0.0000 C   0  0  0  0  0  0  0  0  0  0  0  0
    3.7500   -6.4952    0.0000 C   0  0  0  0  0  0  0  0  0  0  0  0
    3.0000   -7.7942    0.0000 C   0  0  0  0  0  0  0  0  0  0  0  0
    3.7500   -9.0933    0.0000 C   0  0  0  0  0  0  0  0  0  0  0  0
    3.0000  -10.3923    0.0000 C   0  0  0  0  0  0  0  0  0  0  0  0
    3.7500  -11.6913    0.0000 N   0  0  0  0  0  0  0  0  0  0  0  0
    3.7500   -1.2990    0.0000 C   0  0  0  0  0  0  0  0  0  0  0  0
    3.0000    0.0000    0.0000 C   0  0  0  0  0  0  0  0  0  0  0  0
    3.7500    1.2990    0.0000 C   0  0  0  0  0  0  0  0  0  0  0  0
    5.2500    1.2990    0.0000 C   0  0  0  0  0  0  0  0  0  0  0  0
    6.0000    2.5981    0.0000 C   0  0  0  0  0  0  0  0  0  0  0  0
    5.2500    3.8971    0.0000 C   0  0  0  0  0  0  0  0  0  0  0  0
    3.7500    3.8971    0.0000 C   0  0  0  0  0  0  0  0  0  0  0  0
    3.0000    2.5981    0.0000 C   0  0  0  0  0  0  0  0  0  0  0  0
    5.2500   -1.2990    0.0000 C   0  0  0  0  0  0  0  0  0  0  0  0
    6.0000    0.0000    0.0000 O   0  0  0  0  0  0  0  0  0  0  0  0
    3.0000  -12.9904    0.0000 R#  0  0  0  0  0  0  0  0  0  0  0  0
    6.0000   -2.5981    0.0000 R#  0  0  0  0  0  0  0  0  0  0  0  0
  1  2  1  0
  2  3  2  0
  2  4  1  0
  4  5  1  0
  5  6  1  0
  6  7  1  0
  7  8  1  0
  8  9  1  0
  9 10  1  0
 10 11  1  0
 11 22  1  0
  4 12  1  0
 12 13  1  1
 13 14  1  0
 14 15  2  0
 15 16  1  0
 16 17  2  0
 17 18  1  0
 18 19  2  0
 12 20  1  0
 20 23  1  0
 20 21  2  0
 19 14  1  0
M  RGP  2  22   1  23   2
V   22 *
V   23 *
M  END
>  <symbol>  (286)
Mono91

>  <m_abbr>  (286)
Mono91

>  <m_type>  (286)
aa

>  <m_subtype>  (286)
non-natural

>  <m_RgroupIdx>  (286)
21,22,None,None

>  <m_Rgroups>  (286)
H,OH,None,None

>  <m_attachmentPointIdx>  (286)
10,19,None,None

>  <natAnalog>  (286)
F

$$$$

     RDKit          2D

 10  9  0  0  0  0  0  0  0  0999 V2000
    7.7942   -0.0000    0.0000 C   0  0  0  0  0  0  0  0  0  0  0  0
    6.4952    0.7500    0.0000 C   0  0  0  0  0  0  0  0  0  0  0  0
    5.1962   -0.0000    0.0000 C   0  0  0  0  0  0  0  0  0  0  0  0
    3.8971    0.7500    0.0000 C   0  0  0  0  0  0  0  0  0  0  0  0
    2.5981   -0.0000    0.0000 C   0  0  0  0  0  0  0  0  0  0  0  0
    1.2990    0.7500    0.0000 N   0  0  0  0  0  0  0  0  0  0  0  0
    6.4952    2.2500    0.0000 C   0  0  0  0  0  0  0  0  0  0  0  0
    5.1962    3.0000    0.0000 O   0  0  0  0  0  0  0  0  0  0  0  0
    0.0000    0.0000    0.0000 R#  0  0  0  0  0  0  0  0  0  0  0  0
    7.7942    3.0000    0.0000 R#  0  0  0  0  0  0  0  0  0  0  0  0
  2  1  1  6
  2  3  1  0
  3  4  1  0
  4  5  1  0
  5  6  1  0
  6  9  1  0
  2  7  1  0
  7 10  1  0
  7  8  2  0
M  RGP  2   9   1  10   2
V    9 *
V   10 *
M  END
>  <symbol>  (287)
Mono92

>  <m_abbr>  (287)
Mono92

>  <m_type>  (287)
aa

>  <m_subtype>  (287)
non-natural

>  <m_RgroupIdx>  (287)
8,9,None,None

>  <m_Rgroups>  (287)
H,OH,None,None

>  <m_attachmentPointIdx>  (287)
5,6,None,None

>  <natAnalog>  (287)
X

$$$$

     RDKit          2D

 10  9  0  0  0  0  0  0  0  0999 V2000
    7.7942   -0.0000    0.0000 C   0  0  0  0  0  0  0  0  0  0  0  0
    6.4952    0.7500    0.0000 C   0  0  0  0  0  0  0  0  0  0  0  0
    5.1962   -0.0000    0.0000 C   0  0  0  0  0  0  0  0  0  0  0  0
    3.8971    0.7500    0.0000 C   0  0  0  0  0  0  0  0  0  0  0  0
    2.5981   -0.0000    0.0000 C   0  0  0  0  0  0  0  0  0  0  0  0
    1.2990    0.7500    0.0000 N   0  0  0  0  0  0  0  0  0  0  0  0
    6.4952    2.2500    0.0000 C   0  0  0  0  0  0  0  0  0  0  0  0
    5.1962    3.0000    0.0000 O   0  0  0  0  0  0  0  0  0  0  0  0
    0.0000    0.0000    0.0000 R#  0  0  0  0  0  0  0  0  0  0  0  0
    7.7942    3.0000    0.0000 R#  0  0  0  0  0  0  0  0  0  0  0  0
  2  1  1  1
  2  3  1  0
  3  4  1  0
  4  5  1  0
  5  6  1  0
  6  9  1  0
  2  7  1  0
  7 10  1  0
  7  8  2  0
M  RGP  2   9   1  10   2
V    9 *
V   10 *
M  END
>  <symbol>  (288)
Mono93

>  <m_abbr>  (288)
Mono93

>  <m_type>  (288)
aa

>  <m_subtype>  (288)
non-natural

>  <m_RgroupIdx>  (288)
8,9,None,None

>  <m_Rgroups>  (288)
H,OH,None,None

>  <m_attachmentPointIdx>  (288)
5,6,None,None

>  <natAnalog>  (288)
X

$$$$

     RDKit          2D

 10  9  0  0  0  0  0  0  0  0999 V2000
    6.4952    0.7500    0.0000 C   0  0  0  0  0  0  0  0  0  0  0  0
    5.1962   -0.0000    0.0000 C   0  0  0  0  0  0  0  0  0  0  0  0
    3.8971    0.7500    0.0000 C   0  0  0  0  0  0  0  0  0  0  0  0
    2.5981   -0.0000    0.0000 C   0  0  0  0  0  0  0  0  0  0  0  0
    1.2990    0.7500    0.0000 N   0  0  0  0  0  0  0  0  0  0  0  0
    5.1962   -1.5000    0.0000 C   0  0  0  0  0  0  0  0  0  0  0  0
    6.4952   -2.2500    0.0000 C   0  0  0  0  0  0  0  0  0  0  0  0
    7.7942   -1.5000    0.0000 O   0  0  0  0  0  0  0  0  0  0  0  0
    0.0000    0.0000    0.0000 R#  0  0  0  0  0  0  0  0  0  0  0  0
    6.4952   -3.7500    0.0000 R#  0  0  0  0  0  0  0  0  0  0  0  0
  2  1  1  1
  2  3  1  0
  3  4  1  0
  4  5  1  0
  5  9  1  0
  2  6  1  0
  6  7  1  0
  7 10  1  0
  7  8  2  0
M  RGP  2   9   1  10   2
V    9 *
V   10 *
M  END
>  <symbol>  (289)
Mono94

>  <m_abbr>  (289)
Mono94

>  <m_type>  (289)
aa

>  <m_subtype>  (289)
non-natural

>  <m_RgroupIdx>  (289)
8,9,None,None

>  <m_Rgroups>  (289)
H,OH,None,None

>  <m_attachmentPointIdx>  (289)
4,6,None,None

>  <natAnalog>  (289)
X

$$$$

     RDKit          2D

 10  9  0  0  0  0  0  0  0  0999 V2000
    6.4952    0.7500    0.0000 C   0  0  0  0  0  0  0  0  0  0  0  0
    5.1962   -0.0000    0.0000 C   0  0  0  0  0  0  0  0  0  0  0  0
    3.8971    0.7500    0.0000 C   0  0  0  0  0  0  0  0  0  0  0  0
    2.5981   -0.0000    0.0000 C   0  0  0  0  0  0  0  0  0  0  0  0
    1.2990    0.7500    0.0000 N   0  0  0  0  0  0  0  0  0  0  0  0
    5.1962   -1.5000    0.0000 C   0  0  0  0  0  0  0  0  0  0  0  0
    6.4952   -2.2500    0.0000 C   0  0  0  0  0  0  0  0  0  0  0  0
    7.7942   -1.5000    0.0000 O   0  0  0  0  0  0  0  0  0  0  0  0
    0.0000    0.0000    0.0000 R#  0  0  0  0  0  0  0  0  0  0  0  0
    6.4952   -3.7500    0.0000 R#  0  0  0  0  0  0  0  0  0  0  0  0
  2  1  1  6
  2  3  1  0
  3  4  1  0
  4  5  1  0
  5  9  1  0
  2  6  1  0
  6  7  1  0
  7 10  1  0
  7  8  2  0
M  RGP  2   9   1  10   2
V    9 *
V   10 *
M  END
>  <symbol>  (290)
Mono95

>  <m_abbr>  (290)
Mono95

>  <m_type>  (290)
aa

>  <m_subtype>  (290)
non-natural

>  <m_RgroupIdx>  (290)
8,9,None,None

>  <m_Rgroups>  (290)
H,OH,None,None

>  <m_attachmentPointIdx>  (290)
4,6,None,None

>  <natAnalog>  (290)
X

$$$$

     RDKit          2D

 10  9  0  0  0  0  0  0  0  0999 V2000
    5.1962   -0.0000    0.0000 C   0  0  0  0  0  0  0  0  0  0  0  0
    3.8971    0.7500    0.0000 C   0  0  0  0  0  0  0  0  0  0  0  0
    3.8971    2.2500    0.0000 C   0  0  0  0  0  0  0  0  0  0  0  0
    5.1962    3.0000    0.0000 C   0  0  0  0  0  0  0  0  0  0  0  0
    5.1962    4.5000    0.0000 C   0  0  0  0  0  0  0  0  0  0  0  0
    3.8971    5.2500    0.0000 O   0  0  0  0  0  0  0  0  0  0  0  0
    2.5981   -0.0000    0.0000 C   0  0  0  0  0  0  0  0  0  0  0  0
    1.2990    0.7500    0.0000 N   0  0  0  0  0  0  0  0  0  0  0  0
    0.0000    0.0000    0.0000 R#  0  0  0  0  0  0  0  0  0  0  0  0
    6.4952    5.2500    0.0000 R#  0  0  0  0  0  0  0  0  0  0  0  0
  2  1  1  1
  2  3  1  0
  3  4  1  0
  4  5  1  0
  5 10  1  0
  5  6  2  0
  2  7  1  0
  7  8  1  0
  8  9  1  0
M  RGP  2   9   1  10   2
V    9 *
V   10 *
M  END
>  <symbol>  (291)
Mono96

>  <m_abbr>  (291)
Mono96

>  <m_type>  (291)
aa

>  <m_subtype>  (291)
non-natural

>  <m_RgroupIdx>  (291)
8,9,None,None

>  <m_Rgroups>  (291)
H,OH,None,None

>  <m_attachmentPointIdx>  (291)
7,4,None,None

>  <natAnalog>  (291)
X

$$$$

     RDKit          2D

 10  9  0  0  0  0  0  0  0  0999 V2000
    5.1962   -0.0000    0.0000 C   0  0  0  0  0  0  0  0  0  0  0  0
    3.8971    0.7500    0.0000 C   0  0  0  0  0  0  0  0  0  0  0  0
    3.8971    2.2500    0.0000 C   0  0  0  0  0  0  0  0  0  0  0  0
    5.1962    3.0000    0.0000 C   0  0  0  0  0  0  0  0  0  0  0  0
    5.1962    4.5000    0.0000 C   0  0  0  0  0  0  0  0  0  0  0  0
    3.8971    5.2500    0.0000 O   0  0  0  0  0  0  0  0  0  0  0  0
    2.5981   -0.0000    0.0000 C   0  0  0  0  0  0  0  0  0  0  0  0
    1.2990    0.7500    0.0000 N   0  0  0  0  0  0  0  0  0  0  0  0
    0.0000    0.0000    0.0000 R#  0  0  0  0  0  0  0  0  0  0  0  0
    6.4952    5.2500    0.0000 R#  0  0  0  0  0  0  0  0  0  0  0  0
  2  1  1  6
  2  3  1  0
  3  4  1  0
  4  5  1  0
  5 10  1  0
  5  6  2  0
  2  7  1  0
  7  8  1  0
  8  9  1  0
M  RGP  2   9   1  10   2
V    9 *
V   10 *
M  END
>  <symbol>  (292)
Mono97

>  <m_abbr>  (292)
Mono97

>  <m_type>  (292)
aa

>  <m_subtype>  (292)
non-natural

>  <m_RgroupIdx>  (292)
8,9,None,None

>  <m_Rgroups>  (292)
H,OH,None,None

>  <m_attachmentPointIdx>  (292)
7,4,None,None

>  <natAnalog>  (292)
X

$$$$

     RDKit          2D

 10  9  0  0  0  0  0  0  0  0999 V2000
    3.8971    0.7500    0.0000 C   0  0  0  0  0  0  0  0  0  0  0  0
    2.5981   -0.0000    0.0000 C   0  0  0  0  0  0  0  0  0  0  0  0
    2.5981   -1.5000    0.0000 C   0  0  0  0  0  0  0  0  0  0  0  0
    3.8971   -2.2500    0.0000 C   0  0  0  0  0  0  0  0  0  0  0  0
    3.8971   -3.7500    0.0000 C   0  0  0  0  0  0  0  0  0  0  0  0
    5.1962   -4.5000    0.0000 C   0  0  0  0  0  0  0  0  0  0  0  0
    6.4952   -3.7500    0.0000 O   0  0  0  0  0  0  0  0  0  0  0  0
    1.2990    0.7500    0.0000 N   0  0  0  0  0  0  0  0  0  0  0  0
    0.0000    0.0000    0.0000 R#  0  0  0  0  0  0  0  0  0  0  0  0
    5.1962   -6.0000    0.0000 R#  0  0  0  0  0  0  0  0  0  0  0  0
  2  1  1  6
  2  3  1  0
  3  4  1  0
  4  5  1  0
  5  6  1  0
  6 10  1  0
  6  7  2  0
  2  8  1  0
  8  9  1  0
M  RGP  2   9   1  10   2
V    9 *
V   10 *
M  END
>  <symbol>  (293)
Mono98

>  <m_abbr>  (293)
Mono98

>  <m_type>  (293)
aa

>  <m_subtype>  (293)
non-natural

>  <m_RgroupIdx>  (293)
8,9,None,None

>  <m_Rgroups>  (293)
H,OH,None,None

>  <m_attachmentPointIdx>  (293)
7,5,None,None

>  <natAnalog>  (293)
X

$$$$

     RDKit          2D

 10  9  0  0  0  0  0  0  0  0999 V2000
    3.8971    0.7500    0.0000 C   0  0  0  0  0  0  0  0  0  0  0  0
    2.5981   -0.0000    0.0000 C   0  0  0  0  0  0  0  0  0  0  0  0
    2.5981   -1.5000    0.0000 C   0  0  0  0  0  0  0  0  0  0  0  0
    3.8971   -2.2500    0.0000 C   0  0  0  0  0  0  0  0  0  0  0  0
    3.8971   -3.7500    0.0000 C   0  0  0  0  0  0  0  0  0  0  0  0
    5.1962   -4.5000    0.0000 C   0  0  0  0  0  0  0  0  0  0  0  0
    6.4952   -3.7500    0.0000 O   0  0  0  0  0  0  0  0  0  0  0  0
    1.2990    0.7500    0.0000 N   0  0  0  0  0  0  0  0  0  0  0  0
    0.0000    0.0000    0.0000 R#  0  0  0  0  0  0  0  0  0  0  0  0
    5.1962   -6.0000    0.0000 R#  0  0  0  0  0  0  0  0  0  0  0  0
  2  1  1  1
  2  3  1  0
  3  4  1  0
  4  5  1  0
  5  6  1  0
  6 10  1  0
  6  7  2  0
  2  8  1  0
  8  9  1  0
M  RGP  2   9   1  10   2
V    9 *
V   10 *
M  END
>  <symbol>  (294)
Mono99

>  <m_abbr>  (294)
Mono99

>  <m_type>  (294)
aa

>  <m_subtype>  (294)
non-natural

>  <m_RgroupIdx>  (294)
8,9,None,None

>  <m_Rgroups>  (294)
H,OH,None,None

>  <m_attachmentPointIdx>  (294)
7,5,None,None

>  <natAnalog>  (294)
X

$$$$

     RDKit          2D

 13 12  0  0  0  0  0  0  0  0999 V2000
    6.4952    0.7500    0.0000 C   0  0  0  0  0  0  0  0  0  0  0  0
    5.1962   -0.0000    0.0000 N   0  0  0  0  0  0  0  0  0  0  0  0
    3.8971    0.7500    0.0000 C   0  0  0  0  0  0  0  0  0  0  0  0
    3.8971    2.2500    0.0000 O   0  0  0  0  0  0  0  0  0  0  0  0
    2.5981   -0.0000    0.0000 C   0  0  0  0  0  0  0  0  0  0  0  0
    2.5981   -1.5000    0.0000 C   0  0  0  0  0  0  0  0  0  0  0  0
    3.8971   -2.2500    0.0000 S   0  0  0  0  0  0  0  0  0  0  0  0
    3.8971   -3.7500    0.0000 C   0  0  0  0  0  0  0  0  0  0  0  0
    5.1962   -4.5000    0.0000 C   0  0  0  0  0  0  0  0  0  0  0  0
    6.4952   -3.7500    0.0000 O   0  0  0  0  0  0  0  0  0  0  0  0
    1.2990    0.7500    0.0000 N   0  0  0  0  0  0  0  0  0  0  0  0
    0.0000    0.0000    0.0000 R#  0  0  0  0  0  0  0  0  0  0  0  0
    5.1962   -6.0000    0.0000 R#  0  0  0  0  0  0  0  0  0  0  0  0
  1  2  1  0
  2  3  1  0
  3  4  2  0
  3  5  1  0
  5  6  1  6
  6  7  1  0
  7  8  1  0
  8  9  1  0
  9 13  1  0
  9 10  2  0
  5 11  1  0
 11 12  1  0
M  RGP  2  12   1  13   2
V   12 *
V   13 *
M  END
>  <symbol>  (295)
Mono100

>  <m_abbr>  (295)
Mono100

>  <m_type>  (295)
aa

>  <m_subtype>  (295)
non-natural

>  <m_RgroupIdx>  (295)
11,12,None,None

>  <m_Rgroups>  (295)
H,OH,None,None

>  <m_attachmentPointIdx>  (295)
10,8,None,None

>  <natAnalog>  (295)
C

$$$$

     RDKit          2D

 14 13  0  0  0  0  0  0  0  0999 V2000
    3.8971    5.2500    0.0000 C   0  0  0  0  0  0  0  0  0  0  0  0
    2.5981    4.5000    0.0000 N   0  0  0  0  0  0  0  0  0  0  0  0
    2.5981    3.0000    0.0000 C   0  0  0  0  0  0  0  0  0  0  0  0
    3.8971    2.2500    0.0000 O   0  0  0  0  0  0  0  0  0  0  0  0
    1.2990    2.2500    0.0000 C   0  0  0  0  0  0  0  0  0  0  0  0
    0.0000    3.0000    0.0000 C   0  0  0  0  0  0  0  0  0  0  0  0
    0.0000    4.5000    0.0000 S   0  0  0  0  0  0  0  0  0  0  0  0
   -1.2990    5.2500    0.0000 C   0  0  0  0  0  0  0  0  0  0  0  0
   -1.2990    6.7500    0.0000 C   0  0  0  0  0  0  0  0  0  0  0  0
    0.0000    7.5000    0.0000 O   0  0  0  0  0  0  0  0  0  0  0  0
    1.2990    0.7500    0.0000 N   0  0  0  0  0  0  0  0  0  0  0  0
    2.5981   -0.0000    0.0000 C   0  0  0  0  0  0  0  0  0  0  0  0
    0.0000    0.0000    0.0000 R#  0  0  0  0  0  0  0  0  0  0  0  0
   -2.5981    7.5000    0.0000 R#  0  0  0  0  0  0  0  0  0  0  0  0
  1  2  1  0
  2  3  1  0
  3  4  2  0
  3  5  1  0
  5  6  1  1
  6  7  1  0
  7  8  1  0
  8  9  1  0
  9 14  1  0
  9 10  2  0
  5 11  1  0
 11 12  1  0
 11 13  1  0
M  RGP  2  13   1  14   2
V   13 *
V   14 *
M  END
>  <symbol>  (296)
Mono101

>  <m_abbr>  (296)
Mono101

>  <m_type>  (296)
aa

>  <m_subtype>  (296)
non-natural

>  <m_RgroupIdx>  (296)
12,13,None,None

>  <m_Rgroups>  (296)
H,OH,None,None

>  <m_attachmentPointIdx>  (296)
10,8,None,None

>  <natAnalog>  (296)
C

$$$$

     RDKit          2D

 14 15  0  0  0  0  0  0  0  0999 V2000
    1.2760    0.0000    0.0000 N   0  0  0  0  0  0  0  0  0  0  0  0
    0.3943    1.2135    0.0000 C   0  0  0  0  0  0  0  0  0  0  0  0
   -1.0323    0.7500    0.0000 C   0  0  0  0  0  0  0  0  0  0  0  0
   -1.0323   -0.7500    0.0000 C   0  0  0  0  0  0  0  0  0  0  0  0
    0.3943   -1.2135    0.0000 C   0  0  0  0  0  0  0  0  0  0  0  0
    0.8578   -2.6401    0.0000 C   0  0  0  0  0  0  0  0  0  0  0  0
    2.2844   -3.1036    0.0000 N   0  0  0  0  0  0  0  0  0  0  0  0
    2.2844   -4.6036    0.0000 C   0  0  0  0  0  0  0  0  0  0  0  0
    3.4979   -5.4853    0.0000 C   0  0  0  0  0  0  0  0  0  0  0  0
    4.8683   -4.8752    0.0000 O   0  0  0  0  0  0  0  0  0  0  0  0
    0.8578   -5.0672    0.0000 C   0  0  0  0  0  0  0  0  0  0  0  0
   -0.0239   -3.8536    0.0000 S   0  0  0  0  0  0  0  0  0  0  0  0
    2.7760    0.0000    0.0000 R#  0  0  0  0  0  0  0  0  0  0  0  0
    3.3411   -6.9771    0.0000 R#  0  0  0  0  0  0  0  0  0  0  0  0
 13  1  1  0
  1  2  1  0
  2  3  1  0
  3  4  1  0
  4  5  1  0
  5  6  1  6
  6  7  2  0
  7  8  1  0
  8  9  1  0
  9 14  1  0
  9 10  2  0
  8 11  2  0
 11 12  1  0
  5  1  1  0
 12  6  1  0
M  RGP  2  13   1  14   2
V   13 *
V   14 *
M  END
>  <symbol>  (297)
Mono102

>  <m_abbr>  (297)
Mono102

>  <m_type>  (297)
aa

>  <m_subtype>  (297)
non-natural

>  <m_RgroupIdx>  (297)
12,13,None,None

>  <m_Rgroups>  (297)
H,OH,None,None

>  <m_attachmentPointIdx>  (297)
0,8,None,None

>  <natAnalog>  (297)
X

$$$$

     RDKit          2D

 31 34  0  0  0  0  0  0  0  0999 V2000
    3.6172   -9.8037    0.0000 C   0  0  0  0  0  0  0  0  0  0  0  0
    4.8308   -8.9221    0.0000 C   0  0  0  0  0  0  0  0  0  0  0  0
    4.6740   -7.4303    0.0000 C   0  0  0  0  0  0  0  0  0  0  0  0
    3.3037   -6.8202    0.0000 C   0  0  0  0  0  0  0  0  0  0  0  0
    2.0046   -7.5702    0.0000 N   0  0  0  0  0  0  0  0  0  0  0  0
    0.8899   -6.5665    0.0000 N   0  0  0  0  0  0  0  0  0  0  0  0
    1.5000   -5.1962    0.0000 C   0  0  0  0  0  0  0  0  0  0  0  0
    0.7500   -3.8971    0.0000 C   0  0  0  0  0  0  0  0  0  0  0  0
    1.5000   -2.5981    0.0000 C   0  0  0  0  0  0  0  0  0  0  0  0
    0.7500   -1.2990    0.0000 C   0  0  0  0  0  0  0  0  0  0  0  0
    1.5000    0.0000    0.0000 C   0  0  0  0  0  0  0  0  0  0  0  0
    0.7500    1.2990    0.0000 C   0  0  0  0  0  0  0  0  0  0  0  0
   -0.7500    1.2990    0.0000 C   0  0  0  0  0  0  0  0  0  0  0  0
   -1.5000    0.0000    0.0000 C   0  0  0  0  0  0  0  0  0  0  0  0
   -0.7500   -1.2990    0.0000 C   0  0  0  0  0  0  0  0  0  0  0  0
   -0.7500   -3.8971    0.0000 N   0  0  0  0  0  0  0  0  0  0  0  0
    2.9918   -5.3529    0.0000 O   0  0  0  0  0  0  0  0  0  0  0  0
    5.8875   -6.5486    0.0000 N   0  0  0  0  0  0  0  0  0  0  0  0
    5.8875   -5.0486    0.0000 C   0  0  0  0  0  0  0  0  0  0  0  0
    7.3141   -4.5851    0.0000 C   0  0  0  0  0  0  0  0  0  0  0  0
    8.1958   -5.7986    0.0000 C   0  0  0  0  0  0  0  0  0  0  0  0
    7.3141   -7.0121    0.0000 C   0  0  0  0  0  0  0  0  0  0  0  0
    7.7776   -8.4387    0.0000 C   0  0  0  0  0  0  0  0  0  0  0  0
    9.2042   -8.9022    0.0000 N   0  0  0  0  0  0  0  0  0  0  0  0
    9.2042  -10.4022    0.0000 C   0  0  0  0  0  0  0  0  0  0  0  0
   10.4177  -11.2839    0.0000 C   0  0  0  0  0  0  0  0  0  0  0  0
   11.7880  -10.6738    0.0000 O   0  0  0  0  0  0  0  0  0  0  0  0
    7.7776  -10.8658    0.0000 C   0  0  0  0  0  0  0  0  0  0  0  0
    6.8959   -9.6522    0.0000 S   0  0  0  0  0  0  0  0  0  0  0  0
   -1.5000   -5.1962    0.0000 R#  0  0  0  0  0  0  0  0  0  0  0  0
   10.2609  -12.7757    0.0000 R#  0  0  0  0  0  0  0  0  0  0  0  0
  1  2  1  0
  3  2  1  6
  3  4  1  0
  4  5  2  0
  5  6  1  0
  6  7  2  0
  7  8  1  0
  8  9  1  1
  9 10  1  0
 10 11  2  0
 11 12  1  0
 12 13  2  0
 13 14  1  0
 14 15  2  0
  8 16  1  0
 16 30  1  0
  7 17  1  0
  3 18  1  0
 18 19  1  0
 19 20  1  0
 20 21  1  0
 21 22  1  0
 22 23  1  1
 23 24  2  0
 24 25  1  0
 25 26  1  0
 26 31  1  0
 26 27  2  0
 25 28  2  0
 28 29  1  0
 17  4  1  0
 22 18  1  0
 29 23  1  0
 15 10  1  0
M  RGP  2  30   1  31   2
V   30 *
V   31 *
M  END
>  <symbol>  (298)
Mono103

>  <m_abbr>  (298)
Mono103

>  <m_type>  (298)
aa

>  <m_subtype>  (298)
non-natural

>  <m_RgroupIdx>  (298)
29,30,None,None

>  <m_Rgroups>  (298)
H,OH,None,None

>  <m_attachmentPointIdx>  (298)
15,25,None,None

>  <natAnalog>  (298)
X

$$$$

     RDKit          2D

 15 15  0  0  0  0  0  0  0  0999 V2000
    5.7760   -2.5981    0.0000 C   0  0  0  0  0  0  0  0  0  0  0  0
    5.0260   -1.2990    0.0000 C   0  0  0  0  0  0  0  0  0  0  0  0
    5.7760    0.0000    0.0000 C   0  0  0  0  0  0  0  0  0  0  0  0
    3.5260   -1.2990    0.0000 C   0  0  0  0  0  0  0  0  0  0  0  0
    2.7760    0.0000    0.0000 C   0  0  0  0  0  0  0  0  0  0  0  0
    3.5260    1.2990    0.0000 N   0  0  0  0  0  0  0  0  0  0  0  0
    1.2760    0.0000    0.0000 C   0  0  0  0  0  0  0  0  0  0  0  0
    0.3943    1.2135    0.0000 N   0  0  0  0  0  0  0  0  0  0  0  0
   -1.0323    0.7500    0.0000 C   0  0  0  0  0  0  0  0  0  0  0  0
   -2.2458    1.6317    0.0000 C   0  0  0  0  0  0  0  0  0  0  0  0
   -3.6161    1.0216    0.0000 O   0  0  0  0  0  0  0  0  0  0  0  0
   -1.0323   -0.7500    0.0000 C   0  0  0  0  0  0  0  0  0  0  0  0
    0.3943   -1.2135    0.0000 O   0  0  0  0  0  0  0  0  0  0  0  0
    5.0260    1.2990    0.0000 R#  0  0  0  0  0  0  0  0  0  0  0  0
   -2.0890    3.1235    0.0000 R#  0  0  0  0  0  0  0  0  0  0  0  0
  1  2  1  0
  2  3  1  0
  2  4  1  0
  5  4  1  1
  5  6  1  0
  6 14  1  0
  5  7  1  0
  7  8  2  0
  8  9  1  0
  9 10  1  0
 10 15  1  0
 10 11  2  0
  9 12  2  0
 12 13  1  0
 13  7  1  0
M  RGP  2  14   1  15   2
V   14 *
V   15 *
M  END
>  <symbol>  (299)
Mono104

>  <m_abbr>  (299)
Mono104

>  <m_type>  (299)
aa

>  <m_subtype>  (299)
non-natural

>  <m_RgroupIdx>  (299)
13,14,None,None

>  <m_Rgroups>  (299)
H,OH,None,None

>  <m_attachmentPointIdx>  (299)
5,9,None,None

>  <natAnalog>  (299)
X

$$$$

     RDKit          2D

 32 35  0  0  0  0  0  0  0  0999 V2000
    3.6172   -9.8037    0.0000 C   0  0  0  0  0  0  0  0  0  0  0  0
    4.8308   -8.9221    0.0000 C   0  0  0  0  0  0  0  0  0  0  0  0
    4.6740   -7.4303    0.0000 C   0  0  0  0  0  0  0  0  0  0  0  0
    3.3037   -6.8202    0.0000 C   0  0  0  0  0  0  0  0  0  0  0  0
    2.0046   -7.5702    0.0000 N   0  0  0  0  0  0  0  0  0  0  0  0
    0.8899   -6.5665    0.0000 N   0  0  0  0  0  0  0  0  0  0  0  0
    1.5000   -5.1962    0.0000 C   0  0  0  0  0  0  0  0  0  0  0  0
    0.7500   -3.8971    0.0000 C   0  0  0  0  0  0  0  0  0  0  0  0
    1.5000   -2.5981    0.0000 C   0  0  0  0  0  0  0  0  0  0  0  0
    0.7500   -1.2990    0.0000 C   0  0  0  0  0  0  0  0  0  0  0  0
    1.5000    0.0000    0.0000 C   0  0  0  0  0  0  0  0  0  0  0  0
    0.7500    1.2990    0.0000 C   0  0  0  0  0  0  0  0  0  0  0  0
   -0.7500    1.2990    0.0000 C   0  0  0  0  0  0  0  0  0  0  0  0
   -1.5000    2.5981    0.0000 O   0  0  0  0  0  0  0  0  0  0  0  0
   -1.5000    0.0000    0.0000 C   0  0  0  0  0  0  0  0  0  0  0  0
   -0.7500   -1.2990    0.0000 C   0  0  0  0  0  0  0  0  0  0  0  0
   -0.7500   -3.8971    0.0000 N   0  0  0  0  0  0  0  0  0  0  0  0
    2.9918   -5.3529    0.0000 O   0  0  0  0  0  0  0  0  0  0  0  0
    5.8875   -6.5486    0.0000 N   0  0  0  0  0  0  0  0  0  0  0  0
    5.8875   -5.0486    0.0000 C   0  0  0  0  0  0  0  0  0  0  0  0
    7.3141   -4.5851    0.0000 C   0  0  0  0  0  0  0  0  0  0  0  0
    8.1958   -5.7986    0.0000 C   0  0  0  0  0  0  0  0  0  0  0  0
    7.3141   -7.0121    0.0000 C   0  0  0  0  0  0  0  0  0  0  0  0
    7.7776   -8.4387    0.0000 C   0  0  0  0  0  0  0  0  0  0  0  0
    9.2042   -8.9022    0.0000 N   0  0  0  0  0  0  0  0  0  0  0  0
    9.2042  -10.4022    0.0000 C   0  0  0  0  0  0  0  0  0  0  0  0
   10.4177  -11.2839    0.0000 C   0  0  0  0  0  0  0  0  0  0  0  0
   11.7880  -10.6738    0.0000 O   0  0  0  0  0  0  0  0  0  0  0  0
    7.7776  -10.8658    0.0000 C   0  0  0  0  0  0  0  0  0  0  0  0
    6.8959   -9.6522    0.0000 S   0  0  0  0  0  0  0  0  0  0  0  0
   -1.5000   -5.1962    0.0000 R#  0  0  0  0  0  0  0  0  0  0  0  0
   10.2609  -12.7757    0.0000 R#  0  0  0  0  0  0  0  0  0  0  0  0
  1  2  1  0
  3  2  1  6
  3  4  1  0
  4  5  2  0
  5  6  1  0
  6  7  2  0
  7  8  1  0
  8  9  1  1
  9 10  1  0
 10 11  2  0
 11 12  1  0
 12 13  2  0
 13 14  1  0
 13 15  1  0
 15 16  2  0
  8 17  1  0
 17 31  1  0
  7 18  1  0
  3 19  1  0
 19 20  1  0
 20 21  1  0
 21 22  1  0
 22 23  1  0
 23 24  1  1
 24 25  2  0
 25 26  1  0
 26 27  1  0
 27 32  1  0
 27 28  2  0
 26 29  2  0
 29 30  1  0
 18  4  1  0
 23 19  1  0
 30 24  1  0
 16 10  1  0
M  RGP  2  31   1  32   2
V   31 *
V   32 *
M  END
>  <symbol>  (300)
Mono105

>  <m_abbr>  (300)
Mono105

>  <m_type>  (300)
aa

>  <m_subtype>  (300)
non-natural

>  <m_RgroupIdx>  (300)
30,31,None,None

>  <m_Rgroups>  (300)
H,OH,None,None

>  <m_attachmentPointIdx>  (300)
16,26,None,None

>  <natAnalog>  (300)
X

$$$$

     RDKit          2D

 18 19  0  0  0  0  0  0  0  0999 V2000
   -0.7500   -3.8971    0.0000 N   0  0  0  0  0  0  0  0  0  0  0  0
    0.7500   -3.8971    0.0000 C   0  0  0  0  0  0  0  0  0  0  0  0
    1.5000   -2.5981    0.0000 C   0  0  0  0  0  0  0  0  0  0  0  0
    0.7500   -1.2990    0.0000 C   0  0  0  0  0  0  0  0  0  0  0  0
    1.5000    0.0000    0.0000 C   0  0  0  0  0  0  0  0  0  0  0  0
    0.7500    1.2990    0.0000 C   0  0  0  0  0  0  0  0  0  0  0  0
   -0.7500    1.2990    0.0000 C   0  0  0  0  0  0  0  0  0  0  0  0
   -1.5000    0.0000    0.0000 C   0  0  0  0  0  0  0  0  0  0  0  0
   -0.7500   -1.2990    0.0000 C   0  0  0  0  0  0  0  0  0  0  0  0
    1.5000   -5.1962    0.0000 C   0  0  0  0  0  0  0  0  0  0  0  0
    2.9918   -5.3529    0.0000 N   0  0  0  0  0  0  0  0  0  0  0  0
    3.3037   -6.8202    0.0000 C   0  0  0  0  0  0  0  0  0  0  0  0
    4.6740   -7.4303    0.0000 C   0  0  0  0  0  0  0  0  0  0  0  0
    5.8875   -6.5486    0.0000 O   0  0  0  0  0  0  0  0  0  0  0  0
    2.0046   -7.5702    0.0000 C   0  0  0  0  0  0  0  0  0  0  0  0
    0.8899   -6.5665    0.0000 O   0  0  0  0  0  0  0  0  0  0  0  0
   -1.5000   -5.1962    0.0000 R#  0  0  0  0  0  0  0  0  0  0  0  0
    4.8308   -8.9221    0.0000 R#  0  0  0  0  0  0  0  0  0  0  0  0
 17  1  1  0
  1  2  1  0
  2  3  1  1
  3  4  1  0
  4  5  2  0
  5  6  1  0
  6  7  2  0
  7  8  1  0
  8  9  2  0
  2 10  1  0
 10 11  2  0
 11 12  1  0
 12 13  1  0
 13 18  1  0
 13 14  2  0
 12 15  2  0
 15 16  1  0
  9  4  1  0
 16 10  1  0
M  RGP  2  17   1  18   2
V   17 *
V   18 *
M  END
>  <symbol>  (301)
Mono106

>  <m_abbr>  (301)
Mono106

>  <m_type>  (301)
aa

>  <m_subtype>  (301)
non-natural

>  <m_RgroupIdx>  (301)
16,17,None,None

>  <m_Rgroups>  (301)
H,OH,None,None

>  <m_attachmentPointIdx>  (301)
0,12,None,None

>  <natAnalog>  (301)
X

$$$$

     RDKit          2D

 31 33  0  0  0  0  0  0  0  0999 V2000
    3.6172   -9.8037    0.0000 C   0  0  0  0  0  0  0  0  0  0  0  0
    4.8308   -8.9221    0.0000 C   0  0  0  0  0  0  0  0  0  0  0  0
    4.6740   -7.4303    0.0000 C   0  0  0  0  0  0  0  0  0  0  0  0
    5.8875   -6.5486    0.0000 N   0  0  0  0  0  0  0  0  0  0  0  0
    7.2578   -7.1587    0.0000 C   0  0  0  0  0  0  0  0  0  0  0  0
    7.4146   -8.6505    0.0000 C   0  0  0  0  0  0  0  0  0  0  0  0
    8.7136   -9.4005    0.0000 N   0  0  0  0  0  0  0  0  0  0  0  0
    8.4018  -10.8677    0.0000 C   0  0  0  0  0  0  0  0  0  0  0  0
    9.4055  -11.9824    0.0000 C   0  0  0  0  0  0  0  0  0  0  0  0
   10.8727  -11.6706    0.0000 O   0  0  0  0  0  0  0  0  0  0  0  0
    6.9100  -11.0245    0.0000 C   0  0  0  0  0  0  0  0  0  0  0  0
    6.2999   -9.6542    0.0000 S   0  0  0  0  0  0  0  0  0  0  0  0
    8.4713   -6.2770    0.0000 C   0  0  0  0  0  0  0  0  0  0  0  0
    9.8417   -6.8871    0.0000 C   0  0  0  0  0  0  0  0  0  0  0  0
    8.3145   -4.7852    0.0000 C   0  0  0  0  0  0  0  0  0  0  0  0
    3.3037   -6.8202    0.0000 C   0  0  0  0  0  0  0  0  0  0  0  0
    2.0046   -7.5702    0.0000 N   0  0  0  0  0  0  0  0  0  0  0  0
    0.8899   -6.5665    0.0000 N   0  0  0  0  0  0  0  0  0  0  0  0
    1.5000   -5.1962    0.0000 C   0  0  0  0  0  0  0  0  0  0  0  0
    0.7500   -3.8971    0.0000 C   0  0  0  0  0  0  0  0  0  0  0  0
    1.5000   -2.5981    0.0000 C   0  0  0  0  0  0  0  0  0  0  0  0
    0.7500   -1.2990    0.0000 C   0  0  0  0  0  0  0  0  0  0  0  0
    1.5000    0.0000    0.0000 C   0  0  0  0  0  0  0  0  0  0  0  0
    0.7500    1.2990    0.0000 C   0  0  0  0  0  0  0  0  0  0  0  0
   -0.7500    1.2990    0.0000 C   0  0  0  0  0  0  0  0  0  0  0  0
   -1.5000    0.0000    0.0000 C   0  0  0  0  0  0  0  0  0  0  0  0
   -0.7500   -1.2990    0.0000 C   0  0  0  0  0  0  0  0  0  0  0  0
   -0.7500   -3.8971    0.0000 N   0  0  0  0  0  0  0  0  0  0  0  0
    2.9918   -5.3529    0.0000 O   0  0  0  0  0  0  0  0  0  0  0  0
   -1.5000   -5.1962    0.0000 R#  0  0  0  0  0  0  0  0  0  0  0  0
    8.9419  -13.4090    0.0000 R#  0  0  0  0  0  0  0  0  0  0  0  0
  1  2  1  0
  3  2  1  6
  3  4  1  0
  5  4  1  1
  5  6  1  0
  6  7  2  0
  7  8  1  0
  8  9  1  0
  9 31  1  0
  9 10  2  0
  8 11  2  0
 11 12  1  0
  5 13  1  0
 13 14  1  0
 13 15  1  0
  3 16  1  0
 16 17  2  0
 17 18  1  0
 18 19  2  0
 19 20  1  0
 20 21  1  1
 21 22  1  0
 22 23  2  0
 23 24  1  0
 24 25  2  0
 25 26  1  0
 26 27  2  0
 20 28  1  0
 28 30  1  0
 19 29  1  0
 12  6  1  0
 29 16  1  0
 27 22  1  0
M  RGP  2  30   1  31   2
V   30 *
V   31 *
M  END
>  <symbol>  (302)
Mono107

>  <m_abbr>  (302)
Mono107

>  <m_type>  (302)
aa

>  <m_subtype>  (302)
non-natural

>  <m_RgroupIdx>  (302)
29,30,None,None

>  <m_Rgroups>  (302)
H,OH,None,None

>  <m_attachmentPointIdx>  (302)
27,8,None,None

>  <natAnalog>  (302)
X

$$$$

     RDKit          2D

 20 21  0  0  0  0  0  0  0  0999 V2000
    2.7760   -2.5981    0.0000 N   0  0  0  0  0  0  0  0  0  0  0  0
    3.5260   -1.2990    0.0000 C   0  0  0  0  0  0  0  0  0  0  0  0
    2.7760    0.0000    0.0000 C   0  0  0  0  0  0  0  0  0  0  0  0
    1.2760    0.0000    0.0000 C   0  0  0  0  0  0  0  0  0  0  0  0
    0.3943    1.2135    0.0000 C   0  0  0  0  0  0  0  0  0  0  0  0
   -1.0323    0.7500    0.0000 S   0  0  0  0  0  0  0  0  0  0  0  0
   -1.0323   -0.7500    0.0000 C   0  0  0  0  0  0  0  0  0  0  0  0
   -2.2458   -1.6317    0.0000 C   0  0  0  0  0  0  0  0  0  0  0  0
   -2.2458   -3.1317    0.0000 N   0  0  0  0  0  0  0  0  0  0  0  0
   -3.6724   -3.5952    0.0000 C   0  0  0  0  0  0  0  0  0  0  0  0
   -4.1359   -5.0218    0.0000 C   0  0  0  0  0  0  0  0  0  0  0  0
   -3.1322   -6.1365    0.0000 O   0  0  0  0  0  0  0  0  0  0  0  0
   -4.5541   -2.3817    0.0000 C   0  0  0  0  0  0  0  0  0  0  0  0
   -3.6724   -1.1682    0.0000 S   0  0  0  0  0  0  0  0  0  0  0  0
    0.3943   -1.2135    0.0000 C   0  0  0  0  0  0  0  0  0  0  0  0
    5.0260   -1.2990    0.0000 C   0  0  0  0  0  0  0  0  0  0  0  0
    5.7760   -2.5981    0.0000 N   0  0  0  0  0  0  0  0  0  0  0  0
    5.7760    0.0000    0.0000 O   0  0  0  0  0  0  0  0  0  0  0  0
    3.5260   -3.8971    0.0000 R#  0  0  0  0  0  0  0  0  0  0  0  0
   -5.6031   -5.3337    0.0000 R#  0  0  0  0  0  0  0  0  0  0  0  0
 19  1  1  0
  1  2  1  0
  2  3  1  1
  3  4  1  0
  4  5  2  0
  5  6  1  0
  6  7  1  0
  7  8  1  0
  8  9  2  0
  9 10  1  0
 10 11  1  6
 11 20  1  0
 11 12  2  0
 10 13  1  0
 13 14  1  0
  7 15  2  0
  2 16  1  0
 16 17  1  0
 16 18  2  0
 15  4  1  0
 14  8  1  0
M  RGP  2  19   1  20   2
V   19 *
V   20 *
M  END
>  <symbol>  (303)
Mono108

>  <m_abbr>  (303)
Mono108

>  <m_type>  (303)
aa

>  <m_subtype>  (303)
non-natural

>  <m_RgroupIdx>  (303)
18,19,None,None

>  <m_Rgroups>  (303)
H,OH,None,None

>  <m_attachmentPointIdx>  (303)
0,10,None,None

>  <natAnalog>  (303)
X

$$$$

     RDKit          2D

 20 21  0  0  0  0  0  0  0  0999 V2000
    2.7760   -2.5981    0.0000 N   0  0  0  0  0  0  0  0  0  0  0  0
    3.5260   -1.2990    0.0000 C   0  0  0  0  0  0  0  0  0  0  0  0
    2.7760    0.0000    0.0000 C   0  0  0  0  0  0  0  0  0  0  0  0
    1.2760    0.0000    0.0000 C   0  0  0  0  0  0  0  0  0  0  0  0
    0.3943    1.2135    0.0000 C   0  0  0  0  0  0  0  0  0  0  0  0
   -1.0323    0.7500    0.0000 C   0  0  0  0  0  0  0  0  0  0  0  0
   -2.2458    1.6317    0.0000 C   0  0  0  0  0  0  0  0  0  0  0  0
   -3.6724    1.1682    0.0000 N   0  0  0  0  0  0  0  0  0  0  0  0
   -4.5541    2.3817    0.0000 C   0  0  0  0  0  0  0  0  0  0  0  0
   -6.0541    2.3817    0.0000 C   0  0  0  0  0  0  0  0  0  0  0  0
   -6.8041    1.0826    0.0000 O   0  0  0  0  0  0  0  0  0  0  0  0
   -3.6724    3.5952    0.0000 C   0  0  0  0  0  0  0  0  0  0  0  0
   -2.2458    3.1317    0.0000 S   0  0  0  0  0  0  0  0  0  0  0  0
   -1.0323   -0.7500    0.0000 C   0  0  0  0  0  0  0  0  0  0  0  0
    0.3943   -1.2135    0.0000 S   0  0  0  0  0  0  0  0  0  0  0  0
    5.0260   -1.2990    0.0000 C   0  0  0  0  0  0  0  0  0  0  0  0
    5.7760   -2.5981    0.0000 N   0  0  0  0  0  0  0  0  0  0  0  0
    5.7760    0.0000    0.0000 O   0  0  0  0  0  0  0  0  0  0  0  0
    3.5260   -3.8971    0.0000 R#  0  0  0  0  0  0  0  0  0  0  0  0
   -6.8041    3.6807    0.0000 R#  0  0  0  0  0  0  0  0  0  0  0  0
 19  1  1  0
  1  2  1  0
  2  3  1  1
  3  4  1  0
  4  5  2  0
  5  6  1  0
  6  7  1  0
  7  8  2  0
  8  9  1  0
  9 10  1  6
 10 20  1  0
 10 11  2  0
  9 12  1  0
 12 13  1  0
  6 14  2  0
 14 15  1  0
  2 16  1  0
 16 17  1  0
 16 18  2  0
 15  4  1  0
 13  7  1  0
M  RGP  2  19   1  20   2
V   19 *
V   20 *
M  END
>  <symbol>  (304)
Mono109

>  <m_abbr>  (304)
Mono109

>  <m_type>  (304)
aa

>  <m_subtype>  (304)
non-natural

>  <m_RgroupIdx>  (304)
18,19,None,None

>  <m_Rgroups>  (304)
H,OH,None,None

>  <m_attachmentPointIdx>  (304)
0,9,None,None

>  <natAnalog>  (304)
X

$$$$

     RDKit          2D

 21 22  0  0  0  0  0  0  0  0999 V2000
    3.0000   -2.5981    0.0000 N   0  0  0  0  0  0  0  0  0  0  0  0
    3.7500   -1.2990    0.0000 C   0  0  0  0  0  0  0  0  0  0  0  0
    3.0000    0.0000    0.0000 C   0  0  0  0  0  0  0  0  0  0  0  0
    1.5000    0.0000    0.0000 C   0  0  0  0  0  0  0  0  0  0  0  0
    0.7500   -1.2990    0.0000 C   0  0  0  0  0  0  0  0  0  0  0  0
   -0.7500   -1.2990    0.0000 C   0  0  0  0  0  0  0  0  0  0  0  0
   -1.5000    0.0000    0.0000 C   0  0  0  0  0  0  0  0  0  0  0  0
   -0.7500    1.2990    0.0000 C   0  0  0  0  0  0  0  0  0  0  0  0
   -1.5000    2.5981    0.0000 C   0  0  0  0  0  0  0  0  0  0  0  0
   -2.9918    2.7549    0.0000 N   0  0  0  0  0  0  0  0  0  0  0  0
   -3.3037    4.2221    0.0000 C   0  0  0  0  0  0  0  0  0  0  0  0
   -4.6740    4.8322    0.0000 C   0  0  0  0  0  0  0  0  0  0  0  0
   -5.8875    3.9505    0.0000 O   0  0  0  0  0  0  0  0  0  0  0  0
   -2.0046    4.9721    0.0000 C   0  0  0  0  0  0  0  0  0  0  0  0
   -0.8899    3.9684    0.0000 S   0  0  0  0  0  0  0  0  0  0  0  0
    0.7500    1.2990    0.0000 C   0  0  0  0  0  0  0  0  0  0  0  0
    5.2500   -1.2990    0.0000 C   0  0  0  0  0  0  0  0  0  0  0  0
    6.0000   -2.5981    0.0000 N   0  0  0  0  0  0  0  0  0  0  0  0
    6.0000    0.0000    0.0000 O   0  0  0  0  0  0  0  0  0  0  0  0
    3.7500   -3.8971    0.0000 R#  0  0  0  0  0  0  0  0  0  0  0  0
   -4.8308    6.3240    0.0000 R#  0  0  0  0  0  0  0  0  0  0  0  0
 20  1  1  0
  1  2  1  0
  2  3  1  1
  3  4  1  0
  4  5  2  0
  5  6  1  0
  6  7  2  0
  7  8  1  0
  8  9  1  0
  9 10  2  0
 10 11  1  0
 11 12  1  6
 12 21  1  0
 12 13  2  0
 11 14  1  0
 14 15  1  0
  8 16  2  0
  2 17  1  0
 17 18  1  0
 17 19  2  0
 16  4  1  0
 15  9  1  0
M  RGP  2  20   1  21   2
V   20 *
V   21 *
M  END
>  <symbol>  (305)
Mono110

>  <m_abbr>  (305)
Mono110

>  <m_type>  (305)
aa

>  <m_subtype>  (305)
non-natural

>  <m_RgroupIdx>  (305)
19,20,None,None

>  <m_Rgroups>  (305)
H,OH,None,None

>  <m_attachmentPointIdx>  (305)
0,11,None,None

>  <natAnalog>  (305)
X

$$$$

     RDKit          2D

 21 22  0  0  0  0  0  0  0  0999 V2000
    3.0000   -2.5981    0.0000 N   0  0  0  0  0  0  0  0  0  0  0  0
    3.7500   -1.2990    0.0000 C   0  0  0  0  0  0  0  0  0  0  0  0
    3.0000    0.0000    0.0000 C   0  0  0  0  0  0  0  0  0  0  0  0
    1.5000    0.0000    0.0000 C   0  0  0  0  0  0  0  0  0  0  0  0
    0.7500   -1.2990    0.0000 C   0  0  0  0  0  0  0  0  0  0  0  0
   -0.7500   -1.2990    0.0000 N   0  0  0  0  0  0  0  0  0  0  0  0
   -1.5000    0.0000    0.0000 C   0  0  0  0  0  0  0  0  0  0  0  0
   -0.7500    1.2990    0.0000 C   0  0  0  0  0  0  0  0  0  0  0  0
   -1.5000    2.5981    0.0000 C   0  0  0  0  0  0  0  0  0  0  0  0
   -2.9918    2.7549    0.0000 N   0  0  0  0  0  0  0  0  0  0  0  0
   -3.3037    4.2221    0.0000 C   0  0  0  0  0  0  0  0  0  0  0  0
   -4.6740    4.8322    0.0000 C   0  0  0  0  0  0  0  0  0  0  0  0
   -5.8875    3.9505    0.0000 O   0  0  0  0  0  0  0  0  0  0  0  0
   -2.0046    4.9721    0.0000 C   0  0  0  0  0  0  0  0  0  0  0  0
   -0.8899    3.9684    0.0000 S   0  0  0  0  0  0  0  0  0  0  0  0
    0.7500    1.2990    0.0000 C   0  0  0  0  0  0  0  0  0  0  0  0
    5.2500   -1.2990    0.0000 C   0  0  0  0  0  0  0  0  0  0  0  0
    6.0000   -2.5981    0.0000 N   0  0  0  0  0  0  0  0  0  0  0  0
    6.0000    0.0000    0.0000 O   0  0  0  0  0  0  0  0  0  0  0  0
    3.7500   -3.8971    0.0000 R#  0  0  0  0  0  0  0  0  0  0  0  0
   -4.8308    6.3240    0.0000 R#  0  0  0  0  0  0  0  0  0  0  0  0
 20  1  1  0
  1  2  1  0
  2  3  1  1
  3  4  1  0
  4  5  2  0
  5  6  1  0
  6  7  2  0
  7  8  1  0
  8  9  1  0
  9 10  2  0
 10 11  1  0
 11 12  1  6
 12 21  1  0
 12 13  2  0
 11 14  1  0
 14 15  1  0
  8 16  2  0
  2 17  1  0
 17 18  1  0
 17 19  2  0
 16  4  1  0
 15  9  1  0
M  RGP  2  20   1  21   2
V   20 *
V   21 *
M  END
>  <symbol>  (306)
Mono111

>  <m_abbr>  (306)
Mono111

>  <m_type>  (306)
aa

>  <m_subtype>  (306)
non-natural

>  <m_RgroupIdx>  (306)
19,20,None,None

>  <m_Rgroups>  (306)
H,OH,None,None

>  <m_attachmentPointIdx>  (306)
0,11,None,None

>  <natAnalog>  (306)
X

$$$$

     RDKit          2D

 15 15  0  0  0  0  0  0  0  0999 V2000
    2.7760   -2.5981    0.0000 N   0  0  0  0  0  0  0  0  0  0  0  0
    3.5260   -1.2990    0.0000 C   0  0  0  0  0  0  0  0  0  0  0  0
    2.7760    0.0000    0.0000 C   0  0  0  0  0  0  0  0  0  0  0  0
    1.2760    0.0000    0.0000 C   0  0  0  0  0  0  0  0  0  0  0  0
    0.3943    1.2135    0.0000 N   0  0  0  0  0  0  0  0  0  0  0  0
   -1.0323    0.7500    0.0000 C   0  0  0  0  0  0  0  0  0  0  0  0
   -2.2458    1.6317    0.0000 C   0  0  0  0  0  0  0  0  0  0  0  0
   -3.6161    1.0216    0.0000 O   0  0  0  0  0  0  0  0  0  0  0  0
   -1.0323   -0.7500    0.0000 C   0  0  0  0  0  0  0  0  0  0  0  0
    0.3943   -1.2135    0.0000 S   0  0  0  0  0  0  0  0  0  0  0  0
    5.0260   -1.2990    0.0000 C   0  0  0  0  0  0  0  0  0  0  0  0
    5.7760   -2.5981    0.0000 N   0  0  0  0  0  0  0  0  0  0  0  0
    5.7760    0.0000    0.0000 O   0  0  0  0  0  0  0  0  0  0  0  0
    3.5260   -3.8971    0.0000 R#  0  0  0  0  0  0  0  0  0  0  0  0
   -2.0890    3.1235    0.0000 R#  0  0  0  0  0  0  0  0  0  0  0  0
 14  1  1  0
  1  2  1  0
  2  3  1  1
  3  4  1  0
  4  5  2  0
  5  6  1  0
  6  7  1  1
  7 15  1  0
  7  8  2  0
  6  9  1  0
  9 10  1  0
  2 11  1  0
 11 12  1  0
 11 13  2  0
 10  4  1  0
M  RGP  2  14   1  15   2
V   14 *
V   15 *
M  END
>  <symbol>  (307)
Mono112

>  <m_abbr>  (307)
Mono112

>  <m_type>  (307)
aa

>  <m_subtype>  (307)
non-natural

>  <m_RgroupIdx>  (307)
13,14,None,None

>  <m_Rgroups>  (307)
H,OH,None,None

>  <m_attachmentPointIdx>  (307)
0,6,None,None

>  <natAnalog>  (307)
X

$$$$

     RDKit          2D

  4  3  0  0  0  0  0  0  0  0999 V2000
    2.5981   -0.0000    0.0000 C   0  0  0  0  0  0  0  0  0  0  0  0
    1.2990    0.7500    0.0000 C   0  0  0  0  0  0  0  0  0  0  0  0
    1.2990    2.2500    0.0000 O   0  0  0  0  0  0  0  0  0  0  0  0
    0.0000    0.0000    0.0000 R#  0  0  0  0  0  0  0  0  0  0  0  0
  1  2  1  0
  2  4  1  0
  2  3  2  0
M  RGP  1   4   2
V    4 *
M  END
>  <m_name>  (308)
N-Terminal acetic acid

>  <symbol>  (308)
ac-

>  <m_abbr>  (308)
ac-

>  <m_type>  (308)
aa

>  <m_subtype>  (308)
non-natural

>  <m_RgroupIdx>  (308)
None,3,None,None

>  <m_Rgroups>  (308)
None,OH,None,None

>  <m_attachmentPointIdx>  (308)
None,1,None,None

>  <natAnalog>  (308)
X

$$$$

     RDKit          2D

 12 11  0  0  0  0  0  0  0  0999 V2000
   12.9904   -0.0000    0.0000 C   0  0  0  0  0  0  0  0  0  0  0  0
   11.6913    0.7500    0.0000 C   0  0  0  0  0  0  0  0  0  0  0  0
   10.3923   -0.0000    0.0000 C   0  0  0  0  0  0  0  0  0  0  0  0
    9.0933    0.7500    0.0000 C   0  0  0  0  0  0  0  0  0  0  0  0
    7.7942   -0.0000    0.0000 C   0  0  0  0  0  0  0  0  0  0  0  0
    6.4952    0.7500    0.0000 C   0  0  0  0  0  0  0  0  0  0  0  0
    5.1962   -0.0000    0.0000 C   0  0  0  0  0  0  0  0  0  0  0  0
    3.8971    0.7500    0.0000 C   0  0  0  0  0  0  0  0  0  0  0  0
    2.5981   -0.0000    0.0000 C   0  0  0  0  0  0  0  0  0  0  0  0
    1.2990    0.7500    0.0000 C   0  0  0  0  0  0  0  0  0  0  0  0
    1.2990    2.2500    0.0000 O   0  0  0  0  0  0  0  0  0  0  0  0
    0.0000    0.0000    0.0000 R#  0  0  0  0  0  0  0  0  0  0  0  0
  1  2  1  0
  2  3  1  0
  3  4  1  0
  4  5  1  0
  5  6  1  0
  6  7  1  0
  7  8  1  0
  8  9  1  0
  9 10  1  0
 10 12  1  0
 10 11  2  0
M  RGP  1  12   2
V   12 *
M  END
>  <m_name>  (309)
N-Terminal decanoic acid

>  <symbol>  (309)
deca-

>  <m_abbr>  (309)
deca-

>  <m_type>  (309)
aa

>  <m_subtype>  (309)
non-natural

>  <m_RgroupIdx>  (309)
None,11,None,None

>  <m_Rgroups>  (309)
None,OH,None,None

>  <m_attachmentPointIdx>  (309)
None,9,None,None

>  <natAnalog>  (309)
X

$$$$

     RDKit          2D

  5  4  0  0  0  0  0  0  0  0999 V2000
    1.2990    0.7500    0.0000 C   0  0  0  0  0  0  0  0  0  0  0  0
    1.2990    2.2500    0.0000 O   0  0  0  0  0  0  0  0  0  0  0  0
    2.5981   -0.0000    0.0000 C   0  0  0  0  0  0  0  0  0  0  0  0
    3.8971    0.7500    0.0000 O   0  0  0  0  0  0  0  0  0  0  0  0
    0.0000    0.0000    0.0000 R#  0  0  0  0  0  0  0  0  0  0  0  0
  5  1  1  0
  1  2  2  0
  1  3  1  0
  3  4  1  0
M  RGP  1   5   2
V    5 *
M  END
>  <m_name>  (310)
N-Terminal glycolic acid

>  <symbol>  (310)
glyco-

>  <m_abbr>  (310)
glyco-

>  <m_type>  (310)
aa

>  <m_subtype>  (310)
non-natural

>  <m_RgroupIdx>  (310)
None,4,None,None

>  <m_Rgroups>  (310)
None,OH,None,None

>  <m_attachmentPointIdx>  (310)
None,0,None,None

>  <natAnalog>  (310)
G

$$$$

     RDKit          2D

 10  9  0  0  0  0  0  0  0  0999 V2000
    3.8971   -2.2500    0.0000 C   0  0  0  0  0  0  0  0  0  0  0  0
    2.5981   -1.5000    0.0000 N   0  0  0  0  0  0  0  0  0  0  0  0
    2.5981   -0.0000    0.0000 C   0  0  0  0  0  0  0  0  0  0  0  0
    3.8971    0.7500    0.0000 C   0  0  0  0  0  0  0  0  0  0  0  0
    5.1962   -0.0000    0.0000 C   0  0  0  0  0  0  0  0  0  0  0  0
    6.4952    0.7500    0.0000 C   0  0  0  0  0  0  0  0  0  0  0  0
    5.1962   -1.5000    0.0000 C   0  0  0  0  0  0  0  0  0  0  0  0
    1.2990    0.7500    0.0000 C   0  0  0  0  0  0  0  0  0  0  0  0
    1.2990    2.2500    0.0000 O   0  0  0  0  0  0  0  0  0  0  0  0
    0.0000    0.0000    0.0000 R#  0  0  0  0  0  0  0  0  0  0  0  0
  1  2  1  0
  2  3  1  0
  3  4  1  1
  4  5  1  0
  5  6  1  0
  5  7  1  0
  3  8  1  0
  8 10  1  0
  8  9  2  0
M  RGP  1  10   2
V   10 *
M  END
>  <m_name>  (311)
N-Terminal N-methyl-D-leucine

>  <symbol>  (311)
medl-

>  <m_abbr>  (311)
medl-

>  <m_type>  (311)
aa

>  <m_subtype>  (311)
non-natural

>  <m_RgroupIdx>  (311)
None,9,None,None

>  <m_Rgroups>  (311)
None,OH,None,None

>  <m_attachmentPointIdx>  (311)
None,7,None,None

>  <natAnalog>  (311)
L

$$$$

     RDKit          2D

  7  7  0  0  0  0  0  0  0  0999 V2000
    1.5000    0.0000    0.0000 N   0  0  0  0  0  0  0  0  0  0  0  0
    0.7500   -1.2990    0.0000 C   0  0  0  0  0  0  0  0  0  0  0  0
   -0.7500   -1.2990    0.0000 C   0  0  0  0  0  0  0  0  0  0  0  0
   -1.5000    0.0000    0.0000 C   0  0  0  0  0  0  0  0  0  0  0  0
   -0.7500    1.2990    0.0000 C   0  0  0  0  0  0  0  0  0  0  0  0
    0.7500    1.2990    0.0000 C   0  0  0  0  0  0  0  0  0  0  0  0
    3.0000    0.0000    0.0000 R#  0  0  0  0  0  0  0  0  0  0  0  0
  7  1  1  0
  1  2  1  0
  2  3  1  0
  3  4  1  0
  4  5  1  0
  5  6  1  0
  6  1  1  0
M  RGP  1   7   1
V    7 *
M  END
>  <m_name>  (312)
C-Terminal piperidine

>  <symbol>  (312)
-pip

>  <m_abbr>  (312)
-pip

>  <m_type>  (312)
aa

>  <m_subtype>  (312)
non-natural

>  <m_RgroupIdx>  (312)
6,None,None,None

>  <m_Rgroups>  (312)
H,None,None,None

>  <m_attachmentPointIdx>  (312)
0,None,None,None

>  <natAnalog>  (312)
X

$$$$

     RDKit          2D

  9  8  0  0  0  0  0  0  0  0999 V2000
   -0.7500   -1.2990    0.0000 C   0  0  0  0  0  0  0  0  0  0  0  0
    0.0000   -2.5981    0.0000 O   0  0  0  0  0  0  0  0  0  0  0  0
    0.0000    0.0000    0.0000 C   0  0  0  0  0  0  0  0  0  0  0  0
    1.5000    0.0000    0.0000 C   0  0  0  0  0  0  0  0  0  0  0  0
    2.2500    1.2990    0.0000 C   0  0  0  0  0  0  0  0  0  0  0  0
    3.7500    1.2990    0.0000 C   0  0  0  0  0  0  0  0  0  0  0  0
    4.5000    2.5981    0.0000 C   0  0  0  0  0  0  0  0  0  0  0  0
    6.0000    2.5981    0.0000 O   0  0  0  0  0  0  0  0  0  0  0  0
   -2.2500   -1.2990    0.0000 R#  0  0  0  0  0  0  0  0  0  0  0  0
  9  1  1  0
  1  2  2  0
  1  3  1  0
  3  4  2  0
  4  5  1  0
  5  6  2  0
  6  7  1  0
  7  8  2  0
M  RGP  1   9   2
V    9 *
M  END
>  <symbol>  (313)
Mono21-

>  <m_abbr>  (313)
Mono21-

>  <m_type>  (313)
aa

>  <m_subtype>  (313)
non-natural

>  <m_RgroupIdx>  (313)
None,8,None,None

>  <m_Rgroups>  (313)
None,OH,None,None

>  <m_attachmentPointIdx>  (313)
None,0,None,None

>  <natAnalog>  (313)
X

$$$$

     RDKit          2D

 17 16  0  0  0  0  0  0  0  0999 V2000
   -0.7500   -3.8971    0.0000 C   0  0  0  0  0  0  0  0  0  0  0  0
    0.0000   -2.5981    0.0000 C   0  0  0  0  0  0  0  0  0  0  0  0
   -0.7500   -1.2990    0.0000 C   0  0  0  0  0  0  0  0  0  0  0  0
   -2.2500   -1.2990    0.0000 C   0  0  0  0  0  0  0  0  0  0  0  0
    0.0000    0.0000    0.0000 C   0  0  0  0  0  0  0  0  0  0  0  0
    1.5000    0.0000    0.0000 C   0  0  0  0  0  0  0  0  0  0  0  0
    2.2500   -1.2990    0.0000 C   0  0  0  0  0  0  0  0  0  0  0  0
    2.2500    1.2990    0.0000 C   0  0  0  0  0  0  0  0  0  0  0  0
    3.7500    1.2990    0.0000 C   0  0  0  0  0  0  0  0  0  0  0  0
    4.5000    0.0000    0.0000 C   0  0  0  0  0  0  0  0  0  0  0  0
    3.7500   -1.2990    0.0000 O   0  0  0  0  0  0  0  0  0  0  0  0
    6.0000    0.0000    0.0000 C   0  0  0  0  0  0  0  0  0  0  0  0
    7.5000    0.0000    0.0000 C   0  0  0  0  0  0  0  0  0  0  0  0
    6.0000   -1.5000    0.0000 O   0  0  0  0  0  0  0  0  0  0  0  0
    6.0000    1.5000    0.0000 C   0  0  0  0  0  0  0  0  0  0  0  0
    4.7010    2.2500    0.0000 O   0  0  0  0  0  0  0  0  0  0  0  0
    7.2990    2.2500    0.0000 R#  0  0  0  0  0  0  0  0  0  0  0  0
  1  2  1  0
  2  3  1  0
  3  4  1  0
  3  5  1  0
  5  6  2  0
  6  7  1  0
  6  8  1  0
  8  9  2  0
  9 10  1  0
 10 11  1  0
 10 12  1  0
 12 13  1  0
 12 14  1  0
 12 15  1  0
 15 17  1  0
 15 16  2  0
M  RGP  1  17   2
V   17 *
M  END
>  <symbol>  (314)
Mono22-

>  <m_abbr>  (314)
Mono22-

>  <m_type>  (314)
aa

>  <m_subtype>  (314)
non-natural

>  <m_RgroupIdx>  (314)
None,16,None,None

>  <m_Rgroups>  (314)
None,OH,None,None

>  <m_attachmentPointIdx>  (314)
None,14,None,None

>  <natAnalog>  (314)
X

$$$$

     RDKit          2D

 16 17  0  0  0  0  0  0  0  0999 V2000
   -1.8373   -5.6601    0.0000 N   0  0  0  0  0  0  0  0  0  0  0  0
   -2.9520   -4.6564    0.0000 C   0  0  0  0  0  0  0  0  0  0  0  0
   -2.6401   -3.1891    0.0000 C   0  0  0  0  0  0  0  0  0  0  0  0
   -1.2135   -2.7256    0.0000 C   0  0  0  0  0  0  0  0  0  0  0  0
   -0.0000   -3.6073    0.0000 C   0  0  0  0  0  0  0  0  0  0  0  0
    1.2135   -2.7256    0.0000 N   0  0  0  0  0  0  0  0  0  0  0  0
    0.7500   -1.2990    0.0000 C   0  0  0  0  0  0  0  0  0  0  0  0
    1.5000    0.0000    0.0000 C   0  0  0  0  0  0  0  0  0  0  0  0
    0.7500    1.2990    0.0000 C   0  0  0  0  0  0  0  0  0  0  0  0
   -0.7500    1.2990    0.0000 C   0  0  0  0  0  0  0  0  0  0  0  0
   -1.5000    0.0000    0.0000 C   0  0  0  0  0  0  0  0  0  0  0  0
   -0.7500   -1.2990    0.0000 C   0  0  0  0  0  0  0  0  0  0  0  0
   -4.3786   -5.1199    0.0000 C   0  0  0  0  0  0  0  0  0  0  0  0
   -5.4933   -4.1162    0.0000 O   0  0  0  0  0  0  0  0  0  0  0  0
   -2.1491   -7.1273    0.0000 R#  0  0  0  0  0  0  0  0  0  0  0  0
   -4.6904   -6.5871    0.0000 R#  0  0  0  0  0  0  0  0  0  0  0  0
 15  1  1  0
  1  2  1  0
  2  3  1  1
  3  4  1  0
  4  5  2  0
  5  6  1  0
  6  7  1  0
  7  8  2  0
  8  9  1  0
  9 10  2  0
 10 11  1  0
 11 12  2  0
  2 13  1  0
 13 16  1  0
 13 14  2  0
 12  4  1  0
 12  7  1  0
M  RGP  2  15   1  16   2
V   15 *
V   16 *
M  END
>  <m_name>  (315)
D-tryptophan

>  <symbol>  (315)
dW

>  <m_abbr>  (315)
dW

>  <m_type>  (315)
aa

>  <m_subtype>  (315)
non-natural

>  <m_RgroupIdx>  (315)
14,15,None,None

>  <m_Rgroups>  (315)
H,OH,None,None

>  <m_attachmentPointIdx>  (315)
0,12,None,None

>  <natAnalog>  (315)
W

$$$$

     RDKit          2D

  7  6  0  0  0  0  0  0  0  0999 V2000
    3.8971    0.7500    0.0000 C   0  0  0  0  0  0  0  0  0  0  0  0
    2.5981   -0.0000    0.0000 C   0  0  0  0  0  0  0  0  0  0  0  0
    1.2990    0.7500    0.0000 N   0  0  0  0  0  0  0  0  0  0  0  0
    2.5981   -1.5000    0.0000 C   0  0  0  0  0  0  0  0  0  0  0  0
    1.2990   -2.2500    0.0000 S   0  0  0  0  0  0  0  0  0  0  0  0
    0.0000    0.0000    0.0000 R#  0  0  0  0  0  0  0  0  0  0  0  0
    3.8971   -2.2500    0.0000 R#  0  0  0  0  0  0  0  0  0  0  0  0
  2  1  1  1
  2  3  1  0
  3  6  1  0
  2  4  1  0
  4  7  1  0
  4  5  2  0
M  RGP  2   6   1   7   2
V    6 *
V    7 *
M  END
>  <symbol>  (316)
Ala(O->S)

>  <m_abbr>  (316)
Ala(O->S)

>  <m_type>  (316)
aa

>  <m_subtype>  (316)
non-natural

>  <m_RgroupIdx>  (316)
5,6,None,None

>  <m_Rgroups>  (316)
H,OH,None,None

>  <m_attachmentPointIdx>  (316)
2,3,None,None

>  <natAnalog>  (316)
A

$$$$

     RDKit          2D

  7  6  0  0  0  0  0  0  0  0999 V2000
    3.8971    0.7500    0.0000 C   0  0  0  0  0  0  0  0  0  0  0  0
    2.5981   -0.0000    0.0000 C   0  0  0  0  0  0  0  0  0  0  0  0
    1.2990    0.7500    0.0000 N   0  0  0  0  0  0  0  0  0  0  0  0
    2.5981   -1.5000    0.0000 C   0  0  0  0  0  0  0  0  0  0  0  0
    1.2990   -2.2500    0.0000 S   0  0  0  0  0  0  0  0  0  0  0  0
    0.0000    0.0000    0.0000 R#  0  0  0  0  0  0  0  0  0  0  0  0
    3.8971   -2.2500    0.0000 R#  0  0  0  0  0  0  0  0  0  0  0  0
  2  1  1  6
  2  3  1  0
  3  6  1  0
  2  4  1  0
  4  7  1  0
  4  5  2  0
M  RGP  2   6   1   7   2
V    6 *
V    7 *
M  END
>  <symbol>  (317)
dAla(O->S)

>  <m_abbr>  (317)
dAla(O->S)

>  <m_type>  (317)
aa

>  <m_subtype>  (317)
non-natural

>  <m_RgroupIdx>  (317)
5,6,None,None

>  <m_Rgroups>  (317)
H,OH,None,None

>  <m_attachmentPointIdx>  (317)
2,3,None,None

>  <natAnalog>  (317)
A

$$$$

     RDKit          2D

 13 13  0  0  0  0  0  0  0  0999 V2000
    3.0000   -2.5981    0.0000 N   0  0  0  0  0  0  0  0  0  0  0  0
    3.7500   -1.2990    0.0000 C   0  0  0  0  0  0  0  0  0  0  0  0
    3.0000    0.0000    0.0000 C   0  0  0  0  0  0  0  0  0  0  0  0
    1.5000    0.0000    0.0000 C   0  0  0  0  0  0  0  0  0  0  0  0
    0.7500   -1.2990    0.0000 C   0  0  0  0  0  0  0  0  0  0  0  0
   -0.7500   -1.2990    0.0000 C   0  0  0  0  0  0  0  0  0  0  0  0
   -1.5000    0.0000    0.0000 C   0  0  0  0  0  0  0  0  0  0  0  0
   -0.7500    1.2990    0.0000 C   0  0  0  0  0  0  0  0  0  0  0  0
    0.7500    1.2990    0.0000 C   0  0  0  0  0  0  0  0  0  0  0  0
    5.2500   -1.2990    0.0000 C   0  0  0  0  0  0  0  0  0  0  0  0
    6.0000    0.0000    0.0000 S   0  0  0  0  0  0  0  0  0  0  0  0
    3.7500   -3.8971    0.0000 R#  0  0  0  0  0  0  0  0  0  0  0  0
    6.0000   -2.5981    0.0000 R#  0  0  0  0  0  0  0  0  0  0  0  0
 12  1  1  0
  1  2  1  0
  2  3  1  1
  3  4  1  0
  4  5  2  0
  5  6  1  0
  6  7  2  0
  7  8  1  0
  8  9  2  0
  2 10  1  0
 10 13  1  0
 10 11  2  0
  9  4  1  0
M  RGP  2  12   1  13   2
V   12 *
V   13 *
M  END
>  <symbol>  (318)
Phe(O->S)

>  <m_abbr>  (318)
Phe(O->S)

>  <m_type>  (318)
aa

>  <m_subtype>  (318)
non-natural

>  <m_RgroupIdx>  (318)
11,12,None,None

>  <m_Rgroups>  (318)
H,OH,None,None

>  <m_attachmentPointIdx>  (318)
0,9,None,None

>  <natAnalog>  (318)
F

$$$$

     RDKit          2D

 10  9  0  0  0  0  0  0  0  0999 V2000
    5.1962    3.0000    0.0000 C   0  0  0  0  0  0  0  0  0  0  0  0
    3.8971    2.2500    0.0000 C   0  0  0  0  0  0  0  0  0  0  0  0
    3.8971    0.7500    0.0000 C   0  0  0  0  0  0  0  0  0  0  0  0
    5.1962   -0.0000    0.0000 C   0  0  0  0  0  0  0  0  0  0  0  0
    2.5981   -0.0000    0.0000 C   0  0  0  0  0  0  0  0  0  0  0  0
    1.2990    0.7500    0.0000 N   0  0  0  0  0  0  0  0  0  0  0  0
    2.5981   -1.5000    0.0000 C   0  0  0  0  0  0  0  0  0  0  0  0
    1.2990   -2.2500    0.0000 S   0  0  0  0  0  0  0  0  0  0  0  0
    0.0000    0.0000    0.0000 R#  0  0  0  0  0  0  0  0  0  0  0  0
    3.8971   -2.2500    0.0000 R#  0  0  0  0  0  0  0  0  0  0  0  0
  1  2  1  0
  2  3  1  0
  3  4  1  6
  3  5  1  0
  5  6  1  1
  6  9  1  0
  5  7  1  0
  7 10  1  0
  7  8  2  0
M  RGP  2   9   1  10   2
V    9 *
V   10 *
M  END
>  <symbol>  (319)
Ile(O->S)

>  <m_abbr>  (319)
Ile(O->S)

>  <m_type>  (319)
aa

>  <m_subtype>  (319)
non-natural

>  <m_RgroupIdx>  (319)
8,9,None,None

>  <m_Rgroups>  (319)
H,OH,None,None

>  <m_attachmentPointIdx>  (319)
5,6,None,None

>  <natAnalog>  (319)
I

$$$$

     RDKit          2D

 12 11  0  0  0  0  0  0  0  0999 V2000
    1.2990    0.7500    0.0000 N   0  0  0  0  0  0  0  0  0  0  0  0
    2.5981   -0.0000    0.0000 C   0  0  0  0  0  0  0  0  0  0  0  0
    3.8971    0.7500    0.0000 C   0  0  0  0  0  0  0  0  0  0  0  0
    5.1962   -0.0000    0.0000 C   0  0  0  0  0  0  0  0  0  0  0  0
    6.4952    0.7500    0.0000 C   0  0  0  0  0  0  0  0  0  0  0  0
    7.7942   -0.0000    0.0000 C   0  0  0  0  0  0  0  0  0  0  0  0
    9.0933    0.7500    0.0000 N   0  0  0  0  0  0  0  0  0  0  0  0
    2.5981   -1.5000    0.0000 C   0  0  0  0  0  0  0  0  0  0  0  0
    1.2990   -2.2500    0.0000 S   0  0  0  0  0  0  0  0  0  0  0  0
    0.0000    0.0000    0.0000 R#  0  0  0  0  0  0  0  0  0  0  0  0
    3.8971   -2.2500    0.0000 R#  0  0  0  0  0  0  0  0  0  0  0  0
   10.3923   -0.0000    0.0000 R#  0  0  0  0  0  0  0  0  0  0  0  0
 10  1  1  0
  1  2  1  0
  2  3  1  1
  3  4  1  0
  4  5  1  0
  5  6  1  0
  6  7  1  0
  7 12  1  0
  2  8  1  0
  8 11  1  0
  8  9  2  0
M  RGP  3  10   1  11   2  12   3
V   10 *
V   11 *
V   12 *
M  END
>  <symbol>  (320)
Lys(O->S)

>  <m_abbr>  (320)
Lys(O->S)

>  <m_type>  (320)
aa

>  <m_subtype>  (320)
non-natural

>  <m_RgroupIdx>  (320)
9,10,11,None

>  <m_Rgroups>  (320)
H,OH,H,None

>  <m_attachmentPointIdx>  (320)
0,7,6,None

>  <natAnalog>  (320)
K

$$$$

     RDKit          2D

 10  9  0  0  0  0  0  0  0  0999 V2000
    6.4952    0.7500    0.0000 C   0  0  0  0  0  0  0  0  0  0  0  0
    5.1962   -0.0000    0.0000 C   0  0  0  0  0  0  0  0  0  0  0  0
    5.1962   -1.5000    0.0000 C   0  0  0  0  0  0  0  0  0  0  0  0
    3.8971    0.7500    0.0000 C   0  0  0  0  0  0  0  0  0  0  0  0
    2.5981   -0.0000    0.0000 C   0  0  0  0  0  0  0  0  0  0  0  0
    1.2990    0.7500    0.0000 N   0  0  0  0  0  0  0  0  0  0  0  0
    2.5981   -1.5000    0.0000 C   0  0  0  0  0  0  0  0  0  0  0  0
    1.2990   -2.2500    0.0000 S   0  0  0  0  0  0  0  0  0  0  0  0
    0.0000    0.0000    0.0000 R#  0  0  0  0  0  0  0  0  0  0  0  0
    3.8971   -2.2500    0.0000 R#  0  0  0  0  0  0  0  0  0  0  0  0
  1  2  1  0
  2  3  1  0
  2  4  1  0
  5  4  1  1
  5  6  1  0
  6  9  1  0
  5  7  1  0
  7 10  1  0
  7  8  2  0
M  RGP  2   9   1  10   2
V    9 *
V   10 *
M  END
>  <symbol>  (321)
Leu(O->S)

>  <m_abbr>  (321)
Leu(O->S)

>  <m_type>  (321)
aa

>  <m_subtype>  (321)
non-natural

>  <m_RgroupIdx>  (321)
8,9,None,None

>  <m_Rgroups>  (321)
H,OH,None,None

>  <m_attachmentPointIdx>  (321)
5,6,None,None

>  <natAnalog>  (321)
L

$$$$

     RDKit          2D

 10  9  0  0  0  0  0  0  0  0999 V2000
    6.4952    0.7500    0.0000 C   0  0  0  0  0  0  0  0  0  0  0  0
    5.1962   -0.0000    0.0000 C   0  0  0  0  0  0  0  0  0  0  0  0
    5.1962   -1.5000    0.0000 C   0  0  0  0  0  0  0  0  0  0  0  0
    3.8971    0.7500    0.0000 C   0  0  0  0  0  0  0  0  0  0  0  0
    2.5981   -0.0000    0.0000 C   0  0  0  0  0  0  0  0  0  0  0  0
    1.2990    0.7500    0.0000 N   0  0  0  0  0  0  0  0  0  0  0  0
    2.5981   -1.5000    0.0000 C   0  0  0  0  0  0  0  0  0  0  0  0
    1.2990   -2.2500    0.0000 S   0  0  0  0  0  0  0  0  0  0  0  0
    0.0000    0.0000    0.0000 R#  0  0  0  0  0  0  0  0  0  0  0  0
    3.8971   -2.2500    0.0000 R#  0  0  0  0  0  0  0  0  0  0  0  0
  1  2  1  0
  2  3  1  0
  2  4  1  0
  5  4  1  6
  5  6  1  0
  6  9  1  0
  5  7  1  0
  7 10  1  0
  7  8  2  0
M  RGP  2   9   1  10   2
V    9 *
V   10 *
M  END
>  <symbol>  (322)
dLeu(O->S)

>  <m_abbr>  (322)
dLeu(O->S)

>  <m_type>  (322)
aa

>  <m_subtype>  (322)
non-natural

>  <m_RgroupIdx>  (322)
8,9,None,None

>  <m_Rgroups>  (322)
H,OH,None,None

>  <m_attachmentPointIdx>  (322)
5,6,None,None

>  <natAnalog>  (322)
L

$$$$

     RDKit          2D

  9  9  0  0  0  0  0  0  0  0999 V2000
    1.2760    0.0000    0.0000 N   0  0  0  0  0  0  0  0  0  0  0  0
    0.3943    1.2135    0.0000 C   0  0  0  0  0  0  0  0  0  0  0  0
   -1.0323    0.7500    0.0000 C   0  0  0  0  0  0  0  0  0  0  0  0
   -1.0323   -0.7500    0.0000 C   0  0  0  0  0  0  0  0  0  0  0  0
    0.3943   -1.2135    0.0000 C   0  0  0  0  0  0  0  0  0  0  0  0
    0.8578   -2.6401    0.0000 C   0  0  0  0  0  0  0  0  0  0  0  0
    2.3250   -2.9520    0.0000 S   0  0  0  0  0  0  0  0  0  0  0  0
    2.7760    0.0000    0.0000 R#  0  0  0  0  0  0  0  0  0  0  0  0
   -0.1459   -3.7548    0.0000 R#  0  0  0  0  0  0  0  0  0  0  0  0
  8  1  1  0
  1  2  1  0
  2  3  1  0
  3  4  1  0
  4  5  1  0
  5  6  1  6
  6  9  1  0
  6  7  2  0
  5  1  1  0
M  RGP  2   8   1   9   2
V    8 *
V    9 *
M  END
>  <symbol>  (323)
Pro(O->S)

>  <m_abbr>  (323)
Pro(O->S)

>  <m_type>  (323)
aa

>  <m_subtype>  (323)
non-natural

>  <m_RgroupIdx>  (323)
7,8,None,None

>  <m_Rgroups>  (323)
H,OH,None,None

>  <m_attachmentPointIdx>  (323)
0,5,None,None

>  <natAnalog>  (323)
P

$$$$

     RDKit          2D

  9  9  0  0  0  0  0  0  0  0999 V2000
    1.2760    0.0000    0.0000 N   0  0  0  0  0  0  0  0  0  0  0  0
    0.3943    1.2135    0.0000 C   0  0  0  0  0  0  0  0  0  0  0  0
   -1.0323    0.7500    0.0000 C   0  0  0  0  0  0  0  0  0  0  0  0
   -1.0323   -0.7500    0.0000 C   0  0  0  0  0  0  0  0  0  0  0  0
    0.3943   -1.2135    0.0000 C   0  0  0  0  0  0  0  0  0  0  0  0
    0.8578   -2.6401    0.0000 C   0  0  0  0  0  0  0  0  0  0  0  0
    2.3250   -2.9520    0.0000 S   0  0  0  0  0  0  0  0  0  0  0  0
    2.7760    0.0000    0.0000 R#  0  0  0  0  0  0  0  0  0  0  0  0
   -0.1459   -3.7548    0.0000 R#  0  0  0  0  0  0  0  0  0  0  0  0
  8  1  1  0
  1  2  1  0
  2  3  1  0
  3  4  1  0
  4  5  1  0
  5  6  1  1
  6  9  1  0
  6  7  2  0
  5  1  1  0
M  RGP  2   8   1   9   2
V    8 *
V    9 *
M  END
>  <symbol>  (324)
dPro(O->S)

>  <m_abbr>  (324)
dPro(O->S)

>  <m_type>  (324)
aa

>  <m_subtype>  (324)
non-natural

>  <m_RgroupIdx>  (324)
7,8,None,None

>  <m_Rgroups>  (324)
H,OH,None,None

>  <m_attachmentPointIdx>  (324)
0,5,None,None

>  <natAnalog>  (324)
P

$$$$

     RDKit          2D

 10  9  0  0  0  0  0  0  0  0999 V2000
    5.1962   -0.0000    0.0000 C   0  0  0  0  0  0  0  0  0  0  0  0
    3.8971    0.7500    0.0000 C   0  0  0  0  0  0  0  0  0  0  0  0
    3.8971    2.2500    0.0000 O   0  0  0  0  0  0  0  0  0  0  0  0
    2.5981   -0.0000    0.0000 C   0  0  0  0  0  0  0  0  0  0  0  0
    1.2990    0.7500    0.0000 N   0  0  0  0  0  0  0  0  0  0  0  0
    2.5981   -1.5000    0.0000 C   0  0  0  0  0  0  0  0  0  0  0  0
    1.2990   -2.2500    0.0000 S   0  0  0  0  0  0  0  0  0  0  0  0
    0.0000    0.0000    0.0000 R#  0  0  0  0  0  0  0  0  0  0  0  0
    3.8971   -2.2500    0.0000 R#  0  0  0  0  0  0  0  0  0  0  0  0
    5.1962    3.0000    0.0000 R#  0  0  0  0  0  0  0  0  0  0  0  0
  2  1  1  6
  2  3  1  0
  3 10  1  0
  2  4  1  0
  4  5  1  1
  5  8  1  0
  4  6  1  0
  6  9  1  0
  6  7  2  0
M  RGP  3   8   1   9   2  10   3
V    8 *
V    9 *
V   10 *
M  END
>  <symbol>  (325)
Thr(O->S)

>  <m_abbr>  (325)
Thr(O->S)

>  <m_type>  (325)
aa

>  <m_subtype>  (325)
non-natural

>  <m_RgroupIdx>  (325)
7,8,9,None

>  <m_Rgroups>  (325)
H,OH,H,None

>  <m_attachmentPointIdx>  (325)
4,5,2,None

>  <natAnalog>  (325)
T

$$$$

     RDKit          2D

 16 17  0  0  0  0  0  0  0  0999 V2000
   -1.8373   -5.6601    0.0000 N   0  0  0  0  0  0  0  0  0  0  0  0
   -2.9520   -4.6564    0.0000 C   0  0  0  0  0  0  0  0  0  0  0  0
   -2.6401   -3.1891    0.0000 C   0  0  0  0  0  0  0  0  0  0  0  0
   -1.2135   -2.7256    0.0000 C   0  0  0  0  0  0  0  0  0  0  0  0
   -0.0000   -3.6073    0.0000 C   0  0  0  0  0  0  0  0  0  0  0  0
    1.2135   -2.7256    0.0000 N   0  0  0  0  0  0  0  0  0  0  0  0
    0.7500   -1.2990    0.0000 C   0  0  0  0  0  0  0  0  0  0  0  0
    1.5000    0.0000    0.0000 C   0  0  0  0  0  0  0  0  0  0  0  0
    0.7500    1.2990    0.0000 C   0  0  0  0  0  0  0  0  0  0  0  0
   -0.7500    1.2990    0.0000 C   0  0  0  0  0  0  0  0  0  0  0  0
   -1.5000    0.0000    0.0000 C   0  0  0  0  0  0  0  0  0  0  0  0
   -0.7500   -1.2990    0.0000 C   0  0  0  0  0  0  0  0  0  0  0  0
   -4.3786   -5.1199    0.0000 C   0  0  0  0  0  0  0  0  0  0  0  0
   -5.4933   -4.1162    0.0000 S   0  0  0  0  0  0  0  0  0  0  0  0
   -2.1491   -7.1273    0.0000 R#  0  0  0  0  0  0  0  0  0  0  0  0
   -4.6904   -6.5871    0.0000 R#  0  0  0  0  0  0  0  0  0  0  0  0
 15  1  1  0
  1  2  1  0
  2  3  1  1
  3  4  1  0
  4  5  2  0
  5  6  1  0
  6  7  1  0
  7  8  2  0
  8  9  1  0
  9 10  2  0
 10 11  1  0
 11 12  2  0
  2 13  1  0
 13 16  1  0
 13 14  2  0
 12  4  1  0
 12  7  1  0
M  RGP  2  15   1  16   2
V   15 *
V   16 *
M  END
>  <symbol>  (326)
dTrp(O->S)

>  <m_abbr>  (326)
dTrp(O->S)

>  <m_type>  (326)
aa

>  <m_subtype>  (326)
non-natural

>  <m_RgroupIdx>  (326)
14,15,None,None

>  <m_Rgroups>  (326)
H,OH,None,None

>  <m_attachmentPointIdx>  (326)
0,12,None,None

>  <natAnalog>  (326)
W

$$$$

     RDKit          2D

 14 14  0  0  0  0  0  0  0  0999 V2000
    3.0000   -2.5981    0.0000 N   0  0  0  0  0  0  0  0  0  0  0  0
    3.7500   -1.2990    0.0000 C   0  0  0  0  0  0  0  0  0  0  0  0
    3.0000    0.0000    0.0000 C   0  0  0  0  0  0  0  0  0  0  0  0
    1.5000    0.0000    0.0000 C   0  0  0  0  0  0  0  0  0  0  0  0
    0.7500   -1.2990    0.0000 C   0  0  0  0  0  0  0  0  0  0  0  0
   -0.7500   -1.2990    0.0000 C   0  0  0  0  0  0  0  0  0  0  0  0
   -1.5000    0.0000    0.0000 C   0  0  0  0  0  0  0  0  0  0  0  0
   -3.0000    0.0000    0.0000 O   0  0  0  0  0  0  0  0  0  0  0  0
   -0.7500    1.2990    0.0000 C   0  0  0  0  0  0  0  0  0  0  0  0
    0.7500    1.2990    0.0000 C   0  0  0  0  0  0  0  0  0  0  0  0
    5.2500   -1.2990    0.0000 C   0  0  0  0  0  0  0  0  0  0  0  0
    6.0000    0.0000    0.0000 S   0  0  0  0  0  0  0  0  0  0  0  0
    3.7500   -3.8971    0.0000 R#  0  0  0  0  0  0  0  0  0  0  0  0
    6.0000   -2.5981    0.0000 R#  0  0  0  0  0  0  0  0  0  0  0  0
 13  1  1  0
  1  2  1  0
  2  3  1  1
  3  4  1  0
  4  5  2  0
  5  6  1  0
  6  7  2  0
  7  8  1  0
  7  9  1  0
  9 10  2  0
  2 11  1  0
 11 14  1  0
 11 12  2  0
 10  4  1  0
M  RGP  2  13   1  14   2
V   13 *
V   14 *
M  END
>  <symbol>  (327)
Tyr(O->S)

>  <m_abbr>  (327)
Tyr(O->S)

>  <m_type>  (327)
aa

>  <m_subtype>  (327)
non-natural

>  <m_RgroupIdx>  (327)
12,13,None,None

>  <m_Rgroups>  (327)
H,OH,None,None

>  <m_attachmentPointIdx>  (327)
0,10,None,None

>  <natAnalog>  (327)
Y

$$$$

     RDKit          2D

  8  8  0  0  0  0  0  0  0  0999 V2000
    1.8302   -1.1491    0.0000 N   0  0  0  0  0  0  0  0  0  0  0  0
    0.8660    0.0000    0.0000 C   0  0  0  0  0  0  0  0  0  0  0  0
    1.8302    1.1491    0.0000 C   0  0  0  0  0  0  0  0  0  0  0  0
    1.3172    2.5586    0.0000 O   0  0  0  0  0  0  0  0  0  0  0  0
   -0.4330    0.7500    0.0000 C   0  0  0  0  0  0  0  0  0  0  0  0
   -0.4330   -0.7500    0.0000 C   0  0  0  0  0  0  0  0  0  0  0  0
    1.3172   -2.5586    0.0000 R#  0  0  0  0  0  0  0  0  0  0  0  0
    3.3074    0.8886    0.0000 R#  0  0  0  0  0  0  0  0  0  0  0  0
  7  1  1  0
  1  2  1  0
  2  3  1  0
  3  8  1  0
  3  4  2  0
  2  5  1  0
  5  6  1  0
  6  2  1  0
M  RGP  2   7   1   8   2
V    7 *
V    8 *
M  END
>  <symbol>  (328)
Ac3c

>  <m_abbr>  (328)
Ac3c

>  <m_type>  (328)
aa

>  <m_subtype>  (328)
non-natural

>  <m_RgroupIdx>  (328)
6,7,None,None

>  <m_Rgroups>  (328)
H,OH,None,None

>  <m_attachmentPointIdx>  (328)
0,2,None,None

>  <natAnalog>  (328)
X

$$$$

     RDKit          2D

 13 13  0  0  0  0  0  0  0  0999 V2000
    5.7760    0.0000    0.0000 N   0  0  0  0  0  0  0  0  0  0  0  0
    5.0260   -1.2990    0.0000 C   0  0  0  0  0  0  0  0  0  0  0  0
    3.5260   -1.2990    0.0000 C   0  0  0  0  0  0  0  0  0  0  0  0
    2.7760    0.0000    0.0000 C   0  0  0  0  0  0  0  0  0  0  0  0
    1.2760    0.0000    0.0000 C   0  0  0  0  0  0  0  0  0  0  0  0
    0.3943    1.2135    0.0000 N   0  0  0  0  0  0  0  0  0  0  0  0
   -1.0323    0.7500    0.0000 N   0  0  0  0  0  0  0  0  0  0  0  0
   -1.0323   -0.7500    0.0000 N   0  0  0  0  0  0  0  0  0  0  0  0
    0.3943   -1.2135    0.0000 N   0  0  0  0  0  0  0  0  0  0  0  0
    5.7760   -2.5981    0.0000 C   0  0  0  0  0  0  0  0  0  0  0  0
    5.0260   -3.8971    0.0000 O   0  0  0  0  0  0  0  0  0  0  0  0
    7.2760    0.0000    0.0000 R#  0  0  0  0  0  0  0  0  0  0  0  0
    7.2760   -2.5981    0.0000 R#  0  0  0  0  0  0  0  0  0  0  0  0
 12  1  1  0
  1  2  1  0
  2  3  1  6
  3  4  1  0
  4  5  1  0
  5  6  1  0
  6  7  2  0
  7  8  1  0
  8  9  1  0
  2 10  1  0
 10 13  1  0
 10 11  2  0
  9  5  2  0
M  RGP  2  12   1  13   2
V   12 *
V   13 *
M  END
>  <symbol>  (329)
Abu(5-Tet)

>  <m_abbr>  (329)
Abu(5-Tet)

>  <m_type>  (329)
aa

>  <m_subtype>  (329)
non-natural

>  <m_RgroupIdx>  (329)
11,12,None,None

>  <m_Rgroups>  (329)
H,OH,None,None

>  <m_attachmentPointIdx>  (329)
0,9,None,None

>  <natAnalog>  (329)
X

$$$$

     RDKit          2D

  9  8  0  0  0  0  0  0  0  0999 V2000
    6.4952    0.7500    0.0000 C   0  0  0  0  0  0  0  0  0  0  0  0
    5.1962   -0.0000    0.0000 C   0  0  0  0  0  0  0  0  0  0  0  0
    3.8971    0.7500    0.0000 C   0  0  0  0  0  0  0  0  0  0  0  0
    2.5981   -0.0000    0.0000 C   0  0  0  0  0  0  0  0  0  0  0  0
    1.2990    0.7500    0.0000 N   0  0  0  0  0  0  0  0  0  0  0  0
    2.5981   -1.5000    0.0000 C   0  0  0  0  0  0  0  0  0  0  0  0
    1.2990   -2.2500    0.0000 O   0  0  0  0  0  0  0  0  0  0  0  0
    0.0000    0.0000    0.0000 R#  0  0  0  0  0  0  0  0  0  0  0  0
    3.8971   -2.2500    0.0000 R#  0  0  0  0  0  0  0  0  0  0  0  0
  1  2  2  0
  2  3  1  0
  4  3  1  1
  4  5  1  0
  5  8  1  0
  4  6  1  0
  6  9  1  0
  6  7  2  0
M  RGP  2   8   1   9   2
V    8 *
V    9 *
M  END
>  <m_name>  (330)
L-allylglycine

>  <symbol>  (330)
Gly(allyl)

>  <m_abbr>  (330)
Gly(allyl)

>  <m_type>  (330)
aa

>  <m_subtype>  (330)
non-natural

>  <m_RgroupIdx>  (330)
7,8,None,None

>  <m_Rgroups>  (330)
H,OH,None,None

>  <m_attachmentPointIdx>  (330)
4,5,None,None

>  <natAnalog>  (330)
G

$$$$

     RDKit          2D

  6  6  0  0  0  0  0  0  0  0999 V2000
    1.2760    0.0000    0.0000 N   0  0  0  0  0  0  0  0  0  0  0  0
    0.3943    1.2135    0.0000 C   0  0  0  0  0  0  0  0  0  0  0  0
   -1.0323    0.7500    0.0000 C   0  0  0  0  0  0  0  0  0  0  0  0
   -1.0323   -0.7500    0.0000 C   0  0  0  0  0  0  0  0  0  0  0  0
    0.3943   -1.2135    0.0000 C   0  0  0  0  0  0  0  0  0  0  0  0
    2.7760    0.0000    0.0000 R#  0  0  0  0  0  0  0  0  0  0  0  0
  6  1  1  0
  1  2  1  0
  2  3  1  0
  3  4  1  0
  4  5  1  0
  5  1  1  0
M  RGP  1   6   1
V    6 *
M  END
>  <m_name>  (331)
C-Terminal pyrrolidine

>  <symbol>  (331)
-pyrro

>  <m_abbr>  (331)
-pyrro

>  <m_type>  (331)
aa

>  <m_subtype>  (331)
non-natural

>  <m_RgroupIdx>  (331)
5,None,None,None

>  <m_Rgroups>  (331)
H,None,None,None

>  <m_attachmentPointIdx>  (331)
0,None,None,None

>  <natAnalog>  (331)
X

$$$$

     RDKit          2D

  8  8  0  0  0  0  0  0  0  0999 V2000
    1.0607    0.0000    0.0000 N   0  0  0  0  0  0  0  0  0  0  0  0
   -0.0000   -1.0607    0.0000 C   0  0  0  0  0  0  0  0  0  0  0  0
   -1.0607    0.0000    0.0000 C   0  0  0  0  0  0  0  0  0  0  0  0
    0.0000    1.0607    0.0000 C   0  0  0  0  0  0  0  0  0  0  0  0
    0.0000    2.5607    0.0000 C   0  0  0  0  0  0  0  0  0  0  0  0
   -1.2990    3.3107    0.0000 O   0  0  0  0  0  0  0  0  0  0  0  0
    2.5607    0.0000    0.0000 R#  0  0  0  0  0  0  0  0  0  0  0  0
    1.2990    3.3107    0.0000 R#  0  0  0  0  0  0  0  0  0  0  0  0
  7  1  1  0
  1  2  1  0
  2  3  1  0
  3  4  1  0
  4  5  1  1
  5  8  1  0
  5  6  2  0
  4  1  1  0
M  RGP  2   7   1   8   2
V    7 *
V    8 *
M  END
>  <m_name>  (332)
L-azetidine-2-carboxylic acid

>  <symbol>  (332)
Aze

>  <m_abbr>  (332)
Aze

>  <m_type>  (332)
aa

>  <m_subtype>  (332)
non-natural

>  <m_RgroupIdx>  (332)
6,7,None,None

>  <m_Rgroups>  (332)
H,OH,None,None

>  <m_attachmentPointIdx>  (332)
0,4,None,None

>  <natAnalog>  (332)
X

$$$$

     RDKit          2D

  8  7  0  0  0  0  0  0  0  0999 V2000
    3.8971    0.7500    0.0000 C   0  0  0  0  0  0  0  0  0  0  0  0
    2.5981   -0.0000    0.0000 C   0  0  0  0  0  0  0  0  0  0  0  0
    2.5981   -1.5000    0.0000 C   0  0  0  0  0  0  0  0  0  0  0  0
    3.8971   -2.2500    0.0000 C   0  0  0  0  0  0  0  0  0  0  0  0
    5.1962   -1.5000    0.0000 O   0  0  0  0  0  0  0  0  0  0  0  0
    1.2990    0.7500    0.0000 N   0  0  0  0  0  0  0  0  0  0  0  0
    0.0000    0.0000    0.0000 R#  0  0  0  0  0  0  0  0  0  0  0  0
    3.8971   -3.7500    0.0000 R#  0  0  0  0  0  0  0  0  0  0  0  0
  2  1  1  6
  2  3  1  0
  3  4  1  0
  4  8  1  0
  4  5  2  0
  2  6  1  0
  6  7  1  0
M  RGP  2   7   1   8   2
V    7 *
V    8 *
M  END
>  <m_name>  (333)
D-3-aminobutyric acid

>  <symbol>  (333)
Bal(d3-Me)

>  <m_abbr>  (333)
Bal(d3-Me)

>  <m_type>  (333)
aa

>  <m_subtype>  (333)
non-natural

>  <m_RgroupIdx>  (333)
6,7,None,None

>  <m_Rgroups>  (333)
H,OH,None,None

>  <m_attachmentPointIdx>  (333)
5,3,None,None

>  <natAnalog>  (333)
A

$$$$

     RDKit          2D

  9  8  0  0  0  0  0  0  0  0999 V2000
    2.5981    3.0000    0.0000 C   0  0  0  0  0  0  0  0  0  0  0  0
    1.2990    2.2500    0.0000 C   0  0  0  0  0  0  0  0  0  0  0  0
    0.0000    3.0000    0.0000 C   0  0  0  0  0  0  0  0  0  0  0  0
    0.0000    4.5000    0.0000 C   0  0  0  0  0  0  0  0  0  0  0  0
    1.2990    5.2500    0.0000 O   0  0  0  0  0  0  0  0  0  0  0  0
    1.2990    0.7500    0.0000 N   0  0  0  0  0  0  0  0  0  0  0  0
    2.5981   -0.0000    0.0000 C   0  0  0  0  0  0  0  0  0  0  0  0
    0.0000    0.0000    0.0000 R#  0  0  0  0  0  0  0  0  0  0  0  0
   -1.2990    5.2500    0.0000 R#  0  0  0  0  0  0  0  0  0  0  0  0
  2  1  1  1
  2  3  1  0
  3  4  1  0
  4  9  1  0
  4  5  2  0
  2  6  1  0
  6  7  1  0
  6  8  1  0
M  RGP  2   8   1   9   2
V    8 *
V    9 *
M  END
>  <m_name>  (334)
N-methyl-D-3-aminobutyric acid

>  <symbol>  (334)
Me_Bal(d3-Me)

>  <m_abbr>  (334)
Me_Bal(d3-Me)

>  <m_type>  (334)
aa

>  <m_subtype>  (334)
non-natural

>  <m_RgroupIdx>  (334)
7,8,None,None

>  <m_Rgroups>  (334)
H,OH,None,None

>  <m_attachmentPointIdx>  (334)
5,3,None,None

>  <natAnalog>  (334)
A

$$$$

     RDKit          2D

 15 15  0  0  0  0  0  0  0  0999 V2000
    6.0000    0.0000    0.0000 N   0  0  0  0  0  0  0  0  0  0  0  0
    5.2500   -1.2990    0.0000 C   0  0  0  0  0  0  0  0  0  0  0  0
    3.7500   -1.2990    0.0000 C   0  0  0  0  0  0  0  0  0  0  0  0
    3.0000    0.0000    0.0000 C   0  0  0  0  0  0  0  0  0  0  0  0
    1.5000    0.0000    0.0000 C   0  0  0  0  0  0  0  0  0  0  0  0
    0.7500   -1.2990    0.0000 C   0  0  0  0  0  0  0  0  0  0  0  0
   -0.7500   -1.2990    0.0000 C   0  0  0  0  0  0  0  0  0  0  0  0
   -1.5000    0.0000    0.0000 C   0  0  0  0  0  0  0  0  0  0  0  0
   -0.7500    1.2990    0.0000 C   0  0  0  0  0  0  0  0  0  0  0  0
    0.7500    1.2990    0.0000 C   0  0  0  0  0  0  0  0  0  0  0  0
    6.0000   -2.5981    0.0000 C   0  0  0  0  0  0  0  0  0  0  0  0
    7.5000   -2.5981    0.0000 C   0  0  0  0  0  0  0  0  0  0  0  0
    8.2500   -1.2990    0.0000 O   0  0  0  0  0  0  0  0  0  0  0  0
    7.5000    0.0000    0.0000 R#  0  0  0  0  0  0  0  0  0  0  0  0
    8.2500   -3.8971    0.0000 R#  0  0  0  0  0  0  0  0  0  0  0  0
 14  1  1  0
  1  2  1  0
  2  3  1  1
  3  4  1  0
  4  5  1  0
  5  6  2  0
  6  7  1  0
  7  8  2  0
  8  9  1  0
  9 10  2  0
  2 11  1  0
 11 12  1  0
 12 15  1  0
 12 13  2  0
 10  5  1  0
M  RGP  2  14   1  15   2
V   14 *
V   15 *
M  END
>  <symbol>  (335)
Bal(d3-EtPh)

>  <m_abbr>  (335)
Bal(d3-EtPh)

>  <m_type>  (335)
aa

>  <m_subtype>  (335)
non-natural

>  <m_RgroupIdx>  (335)
13,14,None,None

>  <m_Rgroups>  (335)
H,OH,None,None

>  <m_attachmentPointIdx>  (335)
0,11,None,None

>  <natAnalog>  (335)
A

$$$$

     RDKit          2D

 13 13  0  0  0  0  0  0  0  0999 V2000
    1.2760   -2.5981    0.0000 C   0  0  0  0  0  0  0  0  0  0  0  0
    2.7760   -2.5981    0.0000 N   0  0  0  0  0  0  0  0  0  0  0  0
    3.5260   -1.2990    0.0000 C   0  0  0  0  0  0  0  0  0  0  0  0
    2.7760    0.0000    0.0000 C   0  0  0  0  0  0  0  0  0  0  0  0
    1.2760    0.0000    0.0000 C   0  0  0  0  0  0  0  0  0  0  0  0
    0.3943    1.2135    0.0000 C   0  0  0  0  0  0  0  0  0  0  0  0
   -1.0323    0.7500    0.0000 N   0  0  0  0  0  0  0  0  0  0  0  0
   -1.0323   -0.7500    0.0000 C   0  0  0  0  0  0  0  0  0  0  0  0
    0.3943   -1.2135    0.0000 N   0  0  0  0  0  0  0  0  0  0  0  0
    5.0260   -1.2990    0.0000 C   0  0  0  0  0  0  0  0  0  0  0  0
    5.7760    0.0000    0.0000 O   0  0  0  0  0  0  0  0  0  0  0  0
    3.5260   -3.8971    0.0000 R#  0  0  0  0  0  0  0  0  0  0  0  0
    5.7760   -2.5981    0.0000 R#  0  0  0  0  0  0  0  0  0  0  0  0
  1  2  1  0
  2 12  1  0
  2  3  1  0
  3  4  1  1
  4  5  1  0
  5  6  2  0
  6  7  1  0
  7  8  1  0
  8  9  2  0
  3 10  1  0
 10 13  1  0
 10 11  2  0
  9  5  1  0
M  RGP  2  12   1  13   2
V   12 *
V   13 *
M  END
>  <m_name>  (336)
N-methyl-L-histidine

>  <symbol>  (336)
meH

>  <m_abbr>  (336)
meH

>  <m_type>  (336)
aa

>  <m_subtype>  (336)
non-natural

>  <m_RgroupIdx>  (336)
11,12,None,None

>  <m_Rgroups>  (336)
H,OH,None,None

>  <m_attachmentPointIdx>  (336)
1,9,None,None

>  <natAnalog>  (336)
H

$$$$

     RDKit          2D

 14 14  0  0  0  0  0  0  0  0999 V2000
    3.0000   -2.5981    0.0000 N   0  0  0  0  0  0  0  0  0  0  0  0
    3.7500   -1.2990    0.0000 C   0  0  0  0  0  0  0  0  0  0  0  0
    3.0000    0.0000    0.0000 C   0  0  0  0  0  0  0  0  0  0  0  0
    1.5000    0.0000    0.0000 C   0  0  0  0  0  0  0  0  0  0  0  0
    0.7500   -1.2990    0.0000 C   0  0  0  0  0  0  0  0  0  0  0  0
   -0.7500   -1.2990    0.0000 C   0  0  0  0  0  0  0  0  0  0  0  0
   -1.5000    0.0000    0.0000 C   0  0  0  0  0  0  0  0  0  0  0  0
   -0.7500    1.2990    0.0000 C   0  0  0  0  0  0  0  0  0  0  0  0
   -1.5000    2.5981    0.0000 Cl  0  0  0  0  0  0  0  0  0  0  0  0
    0.7500    1.2990    0.0000 C   0  0  0  0  0  0  0  0  0  0  0  0
    5.2500   -1.2990    0.0000 C   0  0  0  0  0  0  0  0  0  0  0  0
    6.0000    0.0000    0.0000 O   0  0  0  0  0  0  0  0  0  0  0  0
    3.7500   -3.8971    0.0000 R#  0  0  0  0  0  0  0  0  0  0  0  0
    6.0000   -2.5981    0.0000 R#  0  0  0  0  0  0  0  0  0  0  0  0
 13  1  1  0
  1  2  1  0
  2  3  1  1
  3  4  1  0
  4  5  2  0
  5  6  1  0
  6  7  2  0
  7  8  1  0
  8  9  1  0
  8 10  2  0
  2 11  1  0
 11 14  1  0
 11 12  2  0
 10  4  1  0
M  RGP  2  13   1  14   2
V   13 *
V   14 *
M  END
>  <m_name>  (337)
3-chloro-L-phenylalanine

>  <symbol>  (337)
Phe(3-Cl)

>  <m_abbr>  (337)
Phe(3-Cl)

>  <m_type>  (337)
aa

>  <m_subtype>  (337)
non-natural

>  <m_RgroupIdx>  (337)
12,13,None,None

>  <m_Rgroups>  (337)
H,OH,None,None

>  <m_attachmentPointIdx>  (337)
0,10,None,None

>  <natAnalog>  (337)
F

$$$$

     RDKit          2D

 14 14  0  0  0  0  0  0  0  0999 V2000
    3.0000   -2.5981    0.0000 N   0  0  0  0  0  0  0  0  0  0  0  0
    3.7500   -1.2990    0.0000 C   0  0  0  0  0  0  0  0  0  0  0  0
    3.0000    0.0000    0.0000 C   0  0  0  0  0  0  0  0  0  0  0  0
    1.5000    0.0000    0.0000 C   0  0  0  0  0  0  0  0  0  0  0  0
    0.7500   -1.2990    0.0000 C   0  0  0  0  0  0  0  0  0  0  0  0
   -0.7500   -1.2990    0.0000 C   0  0  0  0  0  0  0  0  0  0  0  0
   -1.5000    0.0000    0.0000 C   0  0  0  0  0  0  0  0  0  0  0  0
   -0.7500    1.2990    0.0000 C   0  0  0  0  0  0  0  0  0  0  0  0
   -1.5000    2.5981    0.0000 F   0  0  0  0  0  0  0  0  0  0  0  0
    0.7500    1.2990    0.0000 C   0  0  0  0  0  0  0  0  0  0  0  0
    5.2500   -1.2990    0.0000 C   0  0  0  0  0  0  0  0  0  0  0  0
    6.0000    0.0000    0.0000 O   0  0  0  0  0  0  0  0  0  0  0  0
    3.7500   -3.8971    0.0000 R#  0  0  0  0  0  0  0  0  0  0  0  0
    6.0000   -2.5981    0.0000 R#  0  0  0  0  0  0  0  0  0  0  0  0
 13  1  1  0
  1  2  1  0
  2  3  1  1
  3  4  1  0
  4  5  2  0
  5  6  1  0
  6  7  2  0
  7  8  1  0
  8  9  1  0
  8 10  2  0
  2 11  1  0
 11 14  1  0
 11 12  2  0
 10  4  1  0
M  RGP  2  13   1  14   2
V   13 *
V   14 *
M  END
>  <m_name>  (338)
3-fluoro-L-phenylalanine

>  <symbol>  (338)
Phe(3-F)

>  <m_abbr>  (338)
Phe(3-F)

>  <m_type>  (338)
aa

>  <m_subtype>  (338)
non-natural

>  <m_RgroupIdx>  (338)
12,13,None,None

>  <m_Rgroups>  (338)
H,OH,None,None

>  <m_attachmentPointIdx>  (338)
0,10,None,None

>  <natAnalog>  (338)
F

$$$$

     RDKit          2D

 14 14  0  0  0  0  0  0  0  0999 V2000
    3.0000   -2.5981    0.0000 N   0  0  0  0  0  0  0  0  0  0  0  0
    3.7500   -1.2990    0.0000 C   0  0  0  0  0  0  0  0  0  0  0  0
    3.0000    0.0000    0.0000 C   0  0  0  0  0  0  0  0  0  0  0  0
    1.5000    0.0000    0.0000 C   0  0  0  0  0  0  0  0  0  0  0  0
    0.7500   -1.2990    0.0000 C   0  0  0  0  0  0  0  0  0  0  0  0
   -0.7500   -1.2990    0.0000 C   0  0  0  0  0  0  0  0  0  0  0  0
   -1.5000    0.0000    0.0000 C   0  0  0  0  0  0  0  0  0  0  0  0
   -3.0000    0.0000    0.0000 Cl  0  0  0  0  0  0  0  0  0  0  0  0
   -0.7500    1.2990    0.0000 C   0  0  0  0  0  0  0  0  0  0  0  0
    0.7500    1.2990    0.0000 C   0  0  0  0  0  0  0  0  0  0  0  0
    5.2500   -1.2990    0.0000 C   0  0  0  0  0  0  0  0  0  0  0  0
    6.0000    0.0000    0.0000 O   0  0  0  0  0  0  0  0  0  0  0  0
    3.7500   -3.8971    0.0000 R#  0  0  0  0  0  0  0  0  0  0  0  0
    6.0000   -2.5981    0.0000 R#  0  0  0  0  0  0  0  0  0  0  0  0
 13  1  1  0
  1  2  1  0
  2  3  1  1
  3  4  1  0
  4  5  2  0
  5  6  1  0
  6  7  2  0
  7  8  1  0
  7  9  1  0
  9 10  2  0
  2 11  1  0
 11 14  1  0
 11 12  2  0
 10  4  1  0
M  RGP  2  13   1  14   2
V   13 *
V   14 *
M  END
>  <m_name>  (339)
4-chloro-L-phenylalanine

>  <symbol>  (339)
Phe(4-Cl)

>  <m_abbr>  (339)
Phe(4-Cl)

>  <m_type>  (339)
aa

>  <m_subtype>  (339)
non-natural

>  <m_RgroupIdx>  (339)
12,13,None,None

>  <m_Rgroups>  (339)
H,OH,None,None

>  <m_attachmentPointIdx>  (339)
0,10,None,None

>  <natAnalog>  (339)
F

$$$$

     RDKit          2D

  8  7  0  0  0  0  0  0  0  0999 V2000
    5.1962   -0.0000    0.0000 C   0  0  0  0  0  0  0  0  0  0  0  0
    3.8971    0.7500    0.0000 C   0  0  0  0  0  0  0  0  0  0  0  0
    2.5981   -0.0000    0.0000 C   0  0  0  0  0  0  0  0  0  0  0  0
    1.2990    0.7500    0.0000 N   0  0  0  0  0  0  0  0  0  0  0  0
    3.8971    2.2500    0.0000 C   0  0  0  0  0  0  0  0  0  0  0  0
    2.5981    3.0000    0.0000 O   0  0  0  0  0  0  0  0  0  0  0  0
    0.0000    0.0000    0.0000 R#  0  0  0  0  0  0  0  0  0  0  0  0
    5.1962    3.0000    0.0000 R#  0  0  0  0  0  0  0  0  0  0  0  0
  2  1  1  6
  2  3  1  0
  3  4  1  0
  4  7  1  0
  2  5  1  0
  5  8  1  0
  5  6  2  0
M  RGP  2   7   1   8   2
V    7 *
V    8 *
M  END
>  <symbol>  (340)
Mono113

>  <m_abbr>  (340)
Mono113

>  <m_type>  (340)
aa

>  <m_subtype>  (340)
non-natural

>  <m_RgroupIdx>  (340)
6,7,None,None

>  <m_Rgroups>  (340)
H,OH,None,None

>  <m_attachmentPointIdx>  (340)
3,4,None,None

>  <natAnalog>  (340)
X

$$$$

     RDKit          2D

 13 12  0  0  0  0  0  0  0  0999 V2000
    7.0442   -1.2990    0.0000 C   0  0  0  0  0  0  0  0  0  0  0  0
    7.7942   -0.0000    0.0000 C   0  0  0  0  0  0  0  0  0  0  0  0
    8.5442    1.2990    0.0000 C   0  0  0  0  0  0  0  0  0  0  0  0
    9.0933   -0.7500    0.0000 O   0  0  0  0  0  0  0  0  0  0  0  0
    6.4952    0.7500    0.0000 C   0  0  0  0  0  0  0  0  0  0  0  0
    5.1962   -0.0000    0.0000 O   0  0  0  0  0  0  0  0  0  0  0  0
    3.8971    0.7500    0.0000 C   0  0  0  0  0  0  0  0  0  0  0  0
    2.5981   -0.0000    0.0000 C   0  0  0  0  0  0  0  0  0  0  0  0
    1.2990    0.7500    0.0000 N   0  0  0  0  0  0  0  0  0  0  0  0
    2.5981   -1.5000    0.0000 C   0  0  0  0  0  0  0  0  0  0  0  0
    1.2990   -2.2500    0.0000 O   0  0  0  0  0  0  0  0  0  0  0  0
    0.0000    0.0000    0.0000 R#  0  0  0  0  0  0  0  0  0  0  0  0
    3.8971   -2.2500    0.0000 R#  0  0  0  0  0  0  0  0  0  0  0  0
  1  2  1  0
  2  3  1  0
  2  4  1  0
  2  5  1  0
  5  6  1  0
  6  7  1  0
  8  7  1  1
  8  9  1  0
  9 12  1  0
  8 10  1  0
 10 13  1  0
 10 11  2  0
M  RGP  2  12   1  13   2
V   12 *
V   13 *
M  END
>  <symbol>  (341)
Ser(tBuOH)

>  <m_abbr>  (341)
Ser(tBuOH)

>  <m_type>  (341)
aa

>  <m_subtype>  (341)
non-natural

>  <m_RgroupIdx>  (341)
11,12,None,None

>  <m_Rgroups>  (341)
H,OH,None,None

>  <m_attachmentPointIdx>  (341)
8,9,None,None

>  <natAnalog>  (341)
S

$$$$

     RDKit          2D

 10  9  0  0  0  0  0  0  0  0999 V2000
    3.1471    2.0490    0.0000 C   0  0  0  0  0  0  0  0  0  0  0  0
    3.8971    0.7500    0.0000 C   0  0  0  0  0  0  0  0  0  0  0  0
    4.6471   -0.5490    0.0000 C   0  0  0  0  0  0  0  0  0  0  0  0
    5.1962    1.5000    0.0000 O   0  0  0  0  0  0  0  0  0  0  0  0
    2.5981   -0.0000    0.0000 C   0  0  0  0  0  0  0  0  0  0  0  0
    1.2990    0.7500    0.0000 N   0  0  0  0  0  0  0  0  0  0  0  0
    2.5981   -1.5000    0.0000 C   0  0  0  0  0  0  0  0  0  0  0  0
    1.2990   -2.2500    0.0000 O   0  0  0  0  0  0  0  0  0  0  0  0
    0.0000    0.0000    0.0000 R#  0  0  0  0  0  0  0  0  0  0  0  0
    3.8971   -2.2500    0.0000 R#  0  0  0  0  0  0  0  0  0  0  0  0
  1  2  1  0
  2  3  1  0
  2  4  1  0
  2  5  1  0
  5  6  1  1
  6  9  1  0
  5  7  1  0
  7 10  1  0
  7  8  2  0
M  RGP  2   9   1  10   2
V    9 *
V   10 *
M  END
>  <m_name>  (342)
3-hydroxy-L-valine

>  <symbol>  (342)
Val(3-OH)

>  <m_abbr>  (342)
Val(3-OH)

>  <m_type>  (342)
aa

>  <m_subtype>  (342)
non-natural

>  <m_RgroupIdx>  (342)
8,9,None,None

>  <m_Rgroups>  (342)
H,OH,None,None

>  <m_attachmentPointIdx>  (342)
5,6,None,None

>  <natAnalog>  (342)
V

$$$$

     RDKit          2D

 10  9  0  0  0  0  0  0  0  0999 V2000
    3.8971    0.7500    0.0000 C   0  0  0  0  0  0  0  0  0  0  0  0
    2.5981   -0.0000    0.0000 C   0  0  0  0  0  0  0  0  0  0  0  0
    1.2990    0.7500    0.0000 N   0  0  0  0  0  0  0  0  0  0  0  0
    1.2990    2.2500    0.0000 C   0  0  0  0  0  0  0  0  0  0  0  0
    2.5981    3.0000    0.0000 C   0  0  0  0  0  0  0  0  0  0  0  0
    2.5981    4.5000    0.0000 C   0  0  0  0  0  0  0  0  0  0  0  0
    3.8971    5.2500    0.0000 C   0  0  0  0  0  0  0  0  0  0  0  0
    5.1962    4.5000    0.0000 O   0  0  0  0  0  0  0  0  0  0  0  0
    0.0000    0.0000    0.0000 R#  0  0  0  0  0  0  0  0  0  0  0  0
    3.8971    6.7500    0.0000 R#  0  0  0  0  0  0  0  0  0  0  0  0
  1  2  1  0
  2  3  1  0
  3  9  1  0
  3  4  1  0
  4  5  1  0
  5  6  1  0
  6  7  1  0
  7 10  1  0
  7  8  2  0
M  RGP  2   9   1  10   2
V    9 *
V   10 *
M  END
>  <symbol>  (343)
Mono114

>  <m_abbr>  (343)
Mono114

>  <m_type>  (343)
aa

>  <m_subtype>  (343)
non-natural

>  <m_RgroupIdx>  (343)
8,9,None,None

>  <m_Rgroups>  (343)
H,OH,None,None

>  <m_attachmentPointIdx>  (343)
2,6,None,None

>  <natAnalog>  (343)
X

$$$$

     RDKit          2D

 10 10  0  0  0  0  0  0  0  0999 V2000
    2.3907   -1.0037    0.0000 N   0  0  0  0  0  0  0  0  0  0  0  0
    1.2760    0.0000    0.0000 C   0  0  0  0  0  0  0  0  0  0  0  0
    2.3907    1.0037    0.0000 C   0  0  0  0  0  0  0  0  0  0  0  0
    2.0788    2.4709    0.0000 O   0  0  0  0  0  0  0  0  0  0  0  0
    0.3943    1.2135    0.0000 C   0  0  0  0  0  0  0  0  0  0  0  0
   -1.0323    0.7500    0.0000 C   0  0  0  0  0  0  0  0  0  0  0  0
   -1.0323   -0.7500    0.0000 C   0  0  0  0  0  0  0  0  0  0  0  0
    0.3943   -1.2135    0.0000 C   0  0  0  0  0  0  0  0  0  0  0  0
    2.0788   -2.4709    0.0000 R#  0  0  0  0  0  0  0  0  0  0  0  0
    3.8173    0.5402    0.0000 R#  0  0  0  0  0  0  0  0  0  0  0  0
  9  1  1  0
  1  2  1  0
  2  3  1  0
  3 10  1  0
  3  4  2  0
  2  5  1  0
  5  6  1  0
  6  7  1  0
  7  8  1  0
  8  2  1  0
M  RGP  2   9   1  10   2
V    9 *
V   10 *
M  END
>  <m_name>  (344)
Cycloleucine

>  <symbol>  (344)
Ac5c

>  <m_abbr>  (344)
Ac5c

>  <m_type>  (344)
aa

>  <m_subtype>  (344)
non-natural

>  <m_RgroupIdx>  (344)
8,9,None,None

>  <m_Rgroups>  (344)
H,OH,None,None

>  <m_attachmentPointIdx>  (344)
0,2,None,None

>  <natAnalog>  (344)
X

$$$$

     RDKit          2D

 20 20  0  0  0  0  0  0  0  0999 V2000
    6.0000    0.0000    0.0000 N   0  0  0  0  0  0  0  0  0  0  0  0
    5.2500   -1.2990    0.0000 C   0  0  0  0  0  0  0  0  0  0  0  0
    3.7500   -1.2990    0.0000 C   0  0  0  0  0  0  0  0  0  0  0  0
    3.0000    0.0000    0.0000 C   0  0  0  0  0  0  0  0  0  0  0  0
    1.5000    0.0000    0.0000 C   0  0  0  0  0  0  0  0  0  0  0  0
    0.7500   -1.2990    0.0000 C   0  0  0  0  0  0  0  0  0  0  0  0
   -0.7500   -1.2990    0.0000 C   0  0  0  0  0  0  0  0  0  0  0  0
   -1.5000   -2.5981    0.0000 F   0  0  0  0  0  0  0  0  0  0  0  0
   -1.5000    0.0000    0.0000 C   0  0  0  0  0  0  0  0  0  0  0  0
   -3.0000    0.0000    0.0000 C   0  0  0  0  0  0  0  0  0  0  0  0
   -4.5000    0.0000    0.0000 F   0  0  0  0  0  0  0  0  0  0  0  0
   -3.0000    1.5000    0.0000 F   0  0  0  0  0  0  0  0  0  0  0  0
   -3.0000   -1.5000    0.0000 F   0  0  0  0  0  0  0  0  0  0  0  0
   -0.7500    1.2990    0.0000 C   0  0  0  0  0  0  0  0  0  0  0  0
   -1.5000    2.5981    0.0000 F   0  0  0  0  0  0  0  0  0  0  0  0
    0.7500    1.2990    0.0000 C   0  0  0  0  0  0  0  0  0  0  0  0
    6.0000   -2.5981    0.0000 C   0  0  0  0  0  0  0  0  0  0  0  0
    5.2500   -3.8971    0.0000 O   0  0  0  0  0  0  0  0  0  0  0  0
    7.5000    0.0000    0.0000 R#  0  0  0  0  0  0  0  0  0  0  0  0
    7.5000   -2.5981    0.0000 R#  0  0  0  0  0  0  0  0  0  0  0  0
 19  1  1  0
  1  2  1  0
  2  3  1  6
  3  4  1  0
  4  5  1  0
  5  6  2  0
  6  7  1  0
  7  8  1  0
  7  9  2  0
  9 10  1  0
 10 11  1  0
 10 12  1  0
 10 13  1  0
  9 14  1  0
 14 15  1  0
 14 16  2  0
  2 17  1  0
 17 20  1  0
 17 18  2  0
 16  5  1  0
M  RGP  2  19   1  20   2
V   19 *
V   20 *
M  END
>  <symbol>  (345)
Hph(4-CF3,3,5-diF)

>  <m_abbr>  (345)
Hph(4-CF3,3,5-diF)

>  <m_type>  (345)
aa

>  <m_subtype>  (345)
non-natural

>  <m_RgroupIdx>  (345)
18,19,None,None

>  <m_Rgroups>  (345)
H,OH,None,None

>  <m_attachmentPointIdx>  (345)
0,16,None,None

>  <natAnalog>  (345)
F

$$$$

     RDKit          2D

 15 15  0  0  0  0  0  0  0  0999 V2000
    3.0000    0.0000    0.0000 C   0  0  0  0  0  0  0  0  0  0  0  0
    1.5000    0.0000    0.0000 C   0  0  0  0  0  0  0  0  0  0  0  0
    0.7500   -1.2990    0.0000 C   0  0  0  0  0  0  0  0  0  0  0  0
   -0.7500   -1.2990    0.0000 C   0  0  0  0  0  0  0  0  0  0  0  0
   -1.5000    0.0000    0.0000 C   0  0  0  0  0  0  0  0  0  0  0  0
   -3.0000    0.0000    0.0000 C   0  0  0  0  0  0  0  0  0  0  0  0
   -3.7500    1.2990    0.0000 C   0  0  0  0  0  0  0  0  0  0  0  0
   -5.2500    1.2990    0.0000 C   0  0  0  0  0  0  0  0  0  0  0  0
   -6.0000   -0.0000    0.0000 N   0  0  0  0  0  0  0  0  0  0  0  0
   -6.0000    2.5981    0.0000 C   0  0  0  0  0  0  0  0  0  0  0  0
   -5.2500    3.8971    0.0000 O   0  0  0  0  0  0  0  0  0  0  0  0
   -0.7500    1.2990    0.0000 C   0  0  0  0  0  0  0  0  0  0  0  0
    0.7500    1.2990    0.0000 C   0  0  0  0  0  0  0  0  0  0  0  0
   -7.5000   -0.0000    0.0000 R#  0  0  0  0  0  0  0  0  0  0  0  0
   -7.5000    2.5981    0.0000 R#  0  0  0  0  0  0  0  0  0  0  0  0
  1  2  1  0
  2  3  2  0
  3  4  1  0
  4  5  2  0
  5  6  1  0
  6  7  1  0
  8  7  1  6
  8  9  1  0
  9 14  1  0
  8 10  1  0
 10 15  1  0
 10 11  2  0
  5 12  1  0
 12 13  2  0
 13  2  1  0
M  RGP  2  14   1  15   2
V   14 *
V   15 *
M  END
>  <m_name>  (346)
4-methyl-L-homophe

>  <symbol>  (346)
Hph(4-Me)

>  <m_abbr>  (346)
Hph(4-Me)

>  <m_type>  (346)
aa

>  <m_subtype>  (346)
non-natural

>  <m_RgroupIdx>  (346)
13,14,None,None

>  <m_Rgroups>  (346)
H,OH,None,None

>  <m_attachmentPointIdx>  (346)
8,9,None,None

>  <natAnalog>  (346)
F

$$$$

     RDKit          2D

 15 15  0  0  0  0  0  0  0  0999 V2000
    3.0000   -2.5981    0.0000 N   0  0  0  0  0  0  0  0  0  0  0  0
    3.7500   -1.2990    0.0000 C   0  0  0  0  0  0  0  0  0  0  0  0
    3.0000    0.0000    0.0000 C   0  0  0  0  0  0  0  0  0  0  0  0
    1.5000    0.0000    0.0000 C   0  0  0  0  0  0  0  0  0  0  0  0
    0.7500   -1.2990    0.0000 C   0  0  0  0  0  0  0  0  0  0  0  0
   -0.7500   -1.2990    0.0000 C   0  0  0  0  0  0  0  0  0  0  0  0
   -1.5000   -2.5981    0.0000 Cl  0  0  0  0  0  0  0  0  0  0  0  0
   -1.5000    0.0000    0.0000 C   0  0  0  0  0  0  0  0  0  0  0  0
   -0.7500    1.2990    0.0000 C   0  0  0  0  0  0  0  0  0  0  0  0
   -1.5000    2.5981    0.0000 Cl  0  0  0  0  0  0  0  0  0  0  0  0
    0.7500    1.2990    0.0000 C   0  0  0  0  0  0  0  0  0  0  0  0
    5.2500   -1.2990    0.0000 C   0  0  0  0  0  0  0  0  0  0  0  0
    6.0000    0.0000    0.0000 O   0  0  0  0  0  0  0  0  0  0  0  0
    3.7500   -3.8971    0.0000 R#  0  0  0  0  0  0  0  0  0  0  0  0
    6.0000   -2.5981    0.0000 R#  0  0  0  0  0  0  0  0  0  0  0  0
 14  1  1  0
  1  2  1  0
  2  3  1  1
  3  4  1  0
  4  5  2  0
  5  6  1  0
  6  7  1  0
  6  8  2  0
  8  9  1  0
  9 10  1  0
  9 11  2  0
  2 12  1  0
 12 15  1  0
 12 13  2  0
 11  4  1  0
M  RGP  2  14   1  15   2
V   14 *
V   15 *
M  END
>  <m_name>  (347)
3,5-dichloro-L-phenylalanine

>  <symbol>  (347)
Phe(3,5-diCl)

>  <m_abbr>  (347)
Phe(3,5-diCl)

>  <m_type>  (347)
aa

>  <m_subtype>  (347)
non-natural

>  <m_RgroupIdx>  (347)
13,14,None,None

>  <m_Rgroups>  (347)
H,OH,None,None

>  <m_attachmentPointIdx>  (347)
0,11,None,None

>  <natAnalog>  (347)
F

$$$$

     RDKit          2D

 19 19  0  0  0  0  0  0  0  0999 V2000
    6.0000    0.0000    0.0000 N   0  0  0  0  0  0  0  0  0  0  0  0
    5.2500   -1.2990    0.0000 C   0  0  0  0  0  0  0  0  0  0  0  0
    3.7500   -1.2990    0.0000 C   0  0  0  0  0  0  0  0  0  0  0  0
    3.0000    0.0000    0.0000 C   0  0  0  0  0  0  0  0  0  0  0  0
    1.5000    0.0000    0.0000 C   0  0  0  0  0  0  0  0  0  0  0  0
    0.7500   -1.2990    0.0000 C   0  0  0  0  0  0  0  0  0  0  0  0
   -0.7500   -1.2990    0.0000 C   0  0  0  0  0  0  0  0  0  0  0  0
   -1.5000    0.0000    0.0000 C   0  0  0  0  0  0  0  0  0  0  0  0
   -3.0000    0.0000    0.0000 C   0  0  0  0  0  0  0  0  0  0  0  0
   -4.5000    0.0000    0.0000 F   0  0  0  0  0  0  0  0  0  0  0  0
   -3.0000    1.5000    0.0000 F   0  0  0  0  0  0  0  0  0  0  0  0
   -3.0000   -1.5000    0.0000 F   0  0  0  0  0  0  0  0  0  0  0  0
   -0.7500    1.2990    0.0000 C   0  0  0  0  0  0  0  0  0  0  0  0
   -1.5000    2.5981    0.0000 Cl  0  0  0  0  0  0  0  0  0  0  0  0
    0.7500    1.2990    0.0000 C   0  0  0  0  0  0  0  0  0  0  0  0
    6.0000   -2.5981    0.0000 C   0  0  0  0  0  0  0  0  0  0  0  0
    5.2500   -3.8971    0.0000 O   0  0  0  0  0  0  0  0  0  0  0  0
    7.5000    0.0000    0.0000 R#  0  0  0  0  0  0  0  0  0  0  0  0
    7.5000   -2.5981    0.0000 R#  0  0  0  0  0  0  0  0  0  0  0  0
 18  1  1  0
  1  2  1  0
  2  3  1  6
  3  4  1  0
  4  5  1  0
  5  6  2  0
  6  7  1  0
  7  8  2  0
  8  9  1  0
  9 10  1  0
  9 11  1  0
  9 12  1  0
  8 13  1  0
 13 14  1  0
 13 15  2  0
  2 16  1  0
 16 19  1  0
 16 17  2  0
 15  5  1  0
M  RGP  2  18   1  19   2
V   18 *
V   19 *
M  END
>  <symbol>  (348)
Hph(4-CF3,3-Cl)

>  <m_abbr>  (348)
Hph(4-CF3,3-Cl)

>  <m_type>  (348)
aa

>  <m_subtype>  (348)
non-natural

>  <m_RgroupIdx>  (348)
17,18,None,None

>  <m_Rgroups>  (348)
H,OH,None,None

>  <m_attachmentPointIdx>  (348)
0,15,None,None

>  <natAnalog>  (348)
F

$$$$

     RDKit          2D

 15 15  0  0  0  0  0  0  0  0999 V2000
    3.0000    0.0000    0.0000 C   0  0  0  0  0  0  0  0  0  0  0  0
    1.5000    0.0000    0.0000 C   0  0  0  0  0  0  0  0  0  0  0  0
    0.7500   -1.2990    0.0000 C   0  0  0  0  0  0  0  0  0  0  0  0
   -0.7500   -1.2990    0.0000 C   0  0  0  0  0  0  0  0  0  0  0  0
   -1.5000    0.0000    0.0000 C   0  0  0  0  0  0  0  0  0  0  0  0
   -3.0000    0.0000    0.0000 C   0  0  0  0  0  0  0  0  0  0  0  0
   -3.7500    1.2990    0.0000 C   0  0  0  0  0  0  0  0  0  0  0  0
   -5.2500    1.2990    0.0000 C   0  0  0  0  0  0  0  0  0  0  0  0
   -6.0000   -0.0000    0.0000 O   0  0  0  0  0  0  0  0  0  0  0  0
   -3.0000    2.5981    0.0000 N   0  0  0  0  0  0  0  0  0  0  0  0
   -1.5000    2.5981    0.0000 C   0  0  0  0  0  0  0  0  0  0  0  0
   -0.7500    1.2990    0.0000 C   0  0  0  0  0  0  0  0  0  0  0  0
    0.7500    1.2990    0.0000 C   0  0  0  0  0  0  0  0  0  0  0  0
   -3.7500    3.8971    0.0000 R#  0  0  0  0  0  0  0  0  0  0  0  0
   -6.0000    2.5981    0.0000 R#  0  0  0  0  0  0  0  0  0  0  0  0
  1  2  1  0
  2  3  2  0
  3  4  1  0
  4  5  2  0
  5  6  1  0
  7  6  1  1
  7  8  1  0
  8 15  1  0
  8  9  2  0
  7 10  1  0
 10 11  1  0
 10 14  1  0
  5 12  1  0
 12 13  2  0
 13  2  1  0
M  RGP  2  14   1  15   2
V   14 *
V   15 *
M  END
>  <m_name>  (349)
N-methyl-4-methyl-L-phenylalanine

>  <symbol>  (349)
Me_Phe(4-Me)

>  <m_abbr>  (349)
Me_Phe(4-Me)

>  <m_type>  (349)
aa

>  <m_subtype>  (349)
non-natural

>  <m_RgroupIdx>  (349)
13,14,None,None

>  <m_Rgroups>  (349)
H,OH,None,None

>  <m_attachmentPointIdx>  (349)
9,7,None,None

>  <natAnalog>  (349)
F

$$$$

     RDKit          2D

 18 18  0  0  0  0  0  0  0  0999 V2000
    3.0000   -1.5000    0.0000 C   0  0  0  0  0  0  0  0  0  0  0  0
    3.0000    0.0000    0.0000 C   0  0  0  0  0  0  0  0  0  0  0  0
    3.0000    1.5000    0.0000 C   0  0  0  0  0  0  0  0  0  0  0  0
    4.5000    0.0000    0.0000 C   0  0  0  0  0  0  0  0  0  0  0  0
    1.5000    0.0000    0.0000 C   0  0  0  0  0  0  0  0  0  0  0  0
    0.7500   -1.2990    0.0000 C   0  0  0  0  0  0  0  0  0  0  0  0
   -0.7500   -1.2990    0.0000 C   0  0  0  0  0  0  0  0  0  0  0  0
   -1.5000    0.0000    0.0000 C   0  0  0  0  0  0  0  0  0  0  0  0
   -3.0000    0.0000    0.0000 C   0  0  0  0  0  0  0  0  0  0  0  0
   -3.7500    1.2990    0.0000 C   0  0  0  0  0  0  0  0  0  0  0  0
   -5.2500    1.2990    0.0000 C   0  0  0  0  0  0  0  0  0  0  0  0
   -6.0000   -0.0000    0.0000 N   0  0  0  0  0  0  0  0  0  0  0  0
   -6.0000    2.5981    0.0000 C   0  0  0  0  0  0  0  0  0  0  0  0
   -5.2500    3.8971    0.0000 O   0  0  0  0  0  0  0  0  0  0  0  0
   -0.7500    1.2990    0.0000 C   0  0  0  0  0  0  0  0  0  0  0  0
    0.7500    1.2990    0.0000 C   0  0  0  0  0  0  0  0  0  0  0  0
   -7.5000   -0.0000    0.0000 R#  0  0  0  0  0  0  0  0  0  0  0  0
   -7.5000    2.5981    0.0000 R#  0  0  0  0  0  0  0  0  0  0  0  0
  1  2  1  0
  2  3  1  0
  2  4  1  0
  2  5  1  0
  5  6  2  0
  6  7  1  0
  7  8  2  0
  8  9  1  0
  9 10  1  0
 11 10  1  6
 11 12  1  0
 12 17  1  0
 11 13  1  0
 13 18  1  0
 13 14  2  0
  8 15  1  0
 15 16  2  0
 16  5  1  0
M  RGP  2  17   1  18   2
V   17 *
V   18 *
M  END
>  <m_name>  (350)
4-tert-butyl-L-homophe

>  <symbol>  (350)
Hph(4-tBu)

>  <m_abbr>  (350)
Hph(4-tBu)

>  <m_type>  (350)
aa

>  <m_subtype>  (350)
non-natural

>  <m_RgroupIdx>  (350)
16,17,None,None

>  <m_Rgroups>  (350)
H,OH,None,None

>  <m_attachmentPointIdx>  (350)
11,12,None,None

>  <natAnalog>  (350)
F

$$$$

     RDKit          2D

 16 16  0  0  0  0  0  0  0  0999 V2000
    6.0000    0.0000    0.0000 N   0  0  0  0  0  0  0  0  0  0  0  0
    5.2500   -1.2990    0.0000 C   0  0  0  0  0  0  0  0  0  0  0  0
    3.7500   -1.2990    0.0000 C   0  0  0  0  0  0  0  0  0  0  0  0
    3.0000    0.0000    0.0000 C   0  0  0  0  0  0  0  0  0  0  0  0
    1.5000    0.0000    0.0000 C   0  0  0  0  0  0  0  0  0  0  0  0
    0.7500   -1.2990    0.0000 C   0  0  0  0  0  0  0  0  0  0  0  0
   -0.7500   -1.2990    0.0000 C   0  0  0  0  0  0  0  0  0  0  0  0
   -1.5000    0.0000    0.0000 C   0  0  0  0  0  0  0  0  0  0  0  0
   -3.0000    0.0000    0.0000 Cl  0  0  0  0  0  0  0  0  0  0  0  0
   -0.7500    1.2990    0.0000 C   0  0  0  0  0  0  0  0  0  0  0  0
   -1.5000    2.5981    0.0000 Cl  0  0  0  0  0  0  0  0  0  0  0  0
    0.7500    1.2990    0.0000 C   0  0  0  0  0  0  0  0  0  0  0  0
    6.0000   -2.5981    0.0000 C   0  0  0  0  0  0  0  0  0  0  0  0
    5.2500   -3.8971    0.0000 O   0  0  0  0  0  0  0  0  0  0  0  0
    7.5000    0.0000    0.0000 R#  0  0  0  0  0  0  0  0  0  0  0  0
    7.5000   -2.5981    0.0000 R#  0  0  0  0  0  0  0  0  0  0  0  0
 15  1  1  0
  1  2  1  0
  2  3  1  6
  3  4  1  0
  4  5  1  0
  5  6  2  0
  6  7  1  0
  7  8  2  0
  8  9  1  0
  8 10  1  0
 10 11  1  0
 10 12  2  0
  2 13  1  0
 13 16  1  0
 13 14  2  0
 12  5  1  0
M  RGP  2  15   1  16   2
V   15 *
V   16 *
M  END
>  <m_name>  (351)
3,4-dichloro-L-homophe

>  <symbol>  (351)
Hph(3,4-diCl)

>  <m_abbr>  (351)
Hph(3,4-diCl)

>  <m_type>  (351)
aa

>  <m_subtype>  (351)
non-natural

>  <m_RgroupIdx>  (351)
14,15,None,None

>  <m_Rgroups>  (351)
H,OH,None,None

>  <m_attachmentPointIdx>  (351)
0,12,None,None

>  <natAnalog>  (351)
F

$$$$

     RDKit          2D

 14 14  0  0  0  0  0  0  0  0999 V2000
    6.0000    0.0000    0.0000 N   0  0  0  0  0  0  0  0  0  0  0  0
    5.2500   -1.2990    0.0000 C   0  0  0  0  0  0  0  0  0  0  0  0
    3.7500   -1.2990    0.0000 C   0  0  0  0  0  0  0  0  0  0  0  0
    3.0000    0.0000    0.0000 C   0  0  0  0  0  0  0  0  0  0  0  0
    1.5000    0.0000    0.0000 C   0  0  0  0  0  0  0  0  0  0  0  0
    0.7500   -1.2990    0.0000 C   0  0  0  0  0  0  0  0  0  0  0  0
   -0.7500   -1.2990    0.0000 C   0  0  0  0  0  0  0  0  0  0  0  0
   -1.5000    0.0000    0.0000 C   0  0  0  0  0  0  0  0  0  0  0  0
   -0.7500    1.2990    0.0000 C   0  0  0  0  0  0  0  0  0  0  0  0
    0.7500    1.2990    0.0000 C   0  0  0  0  0  0  0  0  0  0  0  0
    6.0000   -2.5981    0.0000 C   0  0  0  0  0  0  0  0  0  0  0  0
    5.2500   -3.8971    0.0000 O   0  0  0  0  0  0  0  0  0  0  0  0
    7.5000    0.0000    0.0000 R#  0  0  0  0  0  0  0  0  0  0  0  0
    7.5000   -2.5981    0.0000 R#  0  0  0  0  0  0  0  0  0  0  0  0
 13  1  1  0
  1  2  1  0
  2  3  1  6
  3  4  1  0
  4  5  1  0
  5  6  1  0
  6  7  1  0
  7  8  1  0
  8  9  1  0
  9 10  1  0
  2 11  1  0
 11 14  1  0
 11 12  2  0
 10  5  1  0
M  RGP  2  13   1  14   2
V   13 *
V   14 *
M  END
>  <symbol>  (352)
Hch

>  <m_abbr>  (352)
Hch

>  <m_type>  (352)
aa

>  <m_subtype>  (352)
non-natural

>  <m_RgroupIdx>  (352)
12,13,None,None

>  <m_Rgroups>  (352)
H,OH,None,None

>  <m_attachmentPointIdx>  (352)
0,10,None,None

>  <natAnalog>  (352)
F

$$$$

     RDKit          2D

 15 15  0  0  0  0  0  0  0  0999 V2000
    3.0000   -2.5981    0.0000 N   0  0  0  0  0  0  0  0  0  0  0  0
    3.7500   -1.2990    0.0000 C   0  0  0  0  0  0  0  0  0  0  0  0
    3.0000    0.0000    0.0000 C   0  0  0  0  0  0  0  0  0  0  0  0
    1.5000    0.0000    0.0000 C   0  0  0  0  0  0  0  0  0  0  0  0
    0.7500   -1.2990    0.0000 C   0  0  0  0  0  0  0  0  0  0  0  0
   -0.7500   -1.2990    0.0000 C   0  0  0  0  0  0  0  0  0  0  0  0
   -1.5000   -2.5981    0.0000 F   0  0  0  0  0  0  0  0  0  0  0  0
   -1.5000    0.0000    0.0000 C   0  0  0  0  0  0  0  0  0  0  0  0
   -0.7500    1.2990    0.0000 C   0  0  0  0  0  0  0  0  0  0  0  0
   -1.5000    2.5981    0.0000 Cl  0  0  0  0  0  0  0  0  0  0  0  0
    0.7500    1.2990    0.0000 C   0  0  0  0  0  0  0  0  0  0  0  0
    5.2500   -1.2990    0.0000 C   0  0  0  0  0  0  0  0  0  0  0  0
    6.0000    0.0000    0.0000 O   0  0  0  0  0  0  0  0  0  0  0  0
    3.7500   -3.8971    0.0000 R#  0  0  0  0  0  0  0  0  0  0  0  0
    6.0000   -2.5981    0.0000 R#  0  0  0  0  0  0  0  0  0  0  0  0
 14  1  1  0
  1  2  1  0
  2  3  1  1
  3  4  1  0
  4  5  2  0
  5  6  1  0
  6  7  1  0
  6  8  2  0
  8  9  1  0
  9 10  1  0
  9 11  2  0
  2 12  1  0
 12 15  1  0
 12 13  2  0
 11  4  1  0
M  RGP  2  14   1  15   2
V   14 *
V   15 *
M  END
>  <symbol>  (353)
Phe(3-Cl,5-F)

>  <m_abbr>  (353)
Phe(3-Cl,5-F)

>  <m_type>  (353)
aa

>  <m_subtype>  (353)
non-natural

>  <m_RgroupIdx>  (353)
13,14,None,None

>  <m_Rgroups>  (353)
H,OH,None,None

>  <m_attachmentPointIdx>  (353)
0,11,None,None

>  <natAnalog>  (353)
F

$$$$

     RDKit          2D

 12 12  0  0  0  0  0  0  0  0999 V2000
    2.7760    2.5981    0.0000 C   0  0  0  0  0  0  0  0  0  0  0  0
    3.5260    1.2990    0.0000 N   0  0  0  0  0  0  0  0  0  0  0  0
    2.7760    0.0000    0.0000 C   0  0  0  0  0  0  0  0  0  0  0  0
    3.5260   -1.2990    0.0000 C   0  0  0  0  0  0  0  0  0  0  0  0
    2.7760   -2.5981    0.0000 O   0  0  0  0  0  0  0  0  0  0  0  0
    1.2760    0.0000    0.0000 C   0  0  0  0  0  0  0  0  0  0  0  0
    0.3943    1.2135    0.0000 C   0  0  0  0  0  0  0  0  0  0  0  0
   -1.0323    0.7500    0.0000 C   0  0  0  0  0  0  0  0  0  0  0  0
   -1.0323   -0.7500    0.0000 C   0  0  0  0  0  0  0  0  0  0  0  0
    0.3943   -1.2135    0.0000 C   0  0  0  0  0  0  0  0  0  0  0  0
    5.0260    1.2990    0.0000 R#  0  0  0  0  0  0  0  0  0  0  0  0
    5.0260   -1.2990    0.0000 R#  0  0  0  0  0  0  0  0  0  0  0  0
  1  2  1  0
  2 11  1  0
  3  2  1  6
  3  4  1  0
  4 12  1  0
  4  5  2  0
  3  6  1  0
  6  7  1  0
  7  8  1  0
  8  9  1  0
  9 10  1  0
 10  6  1  0
M  RGP  2  11   1  12   2
V   11 *
V   12 *
M  END
>  <m_name>  (354)
N-methyl-2-cyclopentyl-L-glycine

>  <symbol>  (354)
Me_Gly(cPent)

>  <m_abbr>  (354)
Me_Gly(cPent)

>  <m_type>  (354)
aa

>  <m_subtype>  (354)
non-natural

>  <m_RgroupIdx>  (354)
10,11,None,None

>  <m_Rgroups>  (354)
H,OH,None,None

>  <m_attachmentPointIdx>  (354)
1,3,None,None

>  <natAnalog>  (354)
G

$$$$

     RDKit          2D

 17 17  0  0  0  0  0  0  0  0999 V2000
    3.0000   -2.5981    0.0000 N   0  0  0  0  0  0  0  0  0  0  0  0
    3.7500   -1.2990    0.0000 C   0  0  0  0  0  0  0  0  0  0  0  0
    3.0000    0.0000    0.0000 C   0  0  0  0  0  0  0  0  0  0  0  0
    1.5000    0.0000    0.0000 C   0  0  0  0  0  0  0  0  0  0  0  0
    0.7500   -1.2990    0.0000 C   0  0  0  0  0  0  0  0  0  0  0  0
   -0.7500   -1.2990    0.0000 C   0  0  0  0  0  0  0  0  0  0  0  0
   -1.5000    0.0000    0.0000 C   0  0  0  0  0  0  0  0  0  0  0  0
   -0.7500    1.2990    0.0000 C   0  0  0  0  0  0  0  0  0  0  0  0
   -1.5000    2.5981    0.0000 C   0  0  0  0  0  0  0  0  0  0  0  0
   -2.2500    3.8971    0.0000 F   0  0  0  0  0  0  0  0  0  0  0  0
   -0.2010    3.3481    0.0000 F   0  0  0  0  0  0  0  0  0  0  0  0
   -2.7990    1.8481    0.0000 F   0  0  0  0  0  0  0  0  0  0  0  0
    0.7500    1.2990    0.0000 C   0  0  0  0  0  0  0  0  0  0  0  0
    5.2500   -1.2990    0.0000 C   0  0  0  0  0  0  0  0  0  0  0  0
    6.0000    0.0000    0.0000 O   0  0  0  0  0  0  0  0  0  0  0  0
    3.7500   -3.8971    0.0000 R#  0  0  0  0  0  0  0  0  0  0  0  0
    6.0000   -2.5981    0.0000 R#  0  0  0  0  0  0  0  0  0  0  0  0
 16  1  1  0
  1  2  1  0
  2  3  1  1
  3  4  1  0
  4  5  2  0
  5  6  1  0
  6  7  2  0
  7  8  1  0
  8  9  1  0
  9 10  1  0
  9 11  1  0
  9 12  1  0
  8 13  2  0
  2 14  1  0
 14 17  1  0
 14 15  2  0
 13  4  1  0
M  RGP  2  16   1  17   2
V   16 *
V   17 *
M  END
>  <m_name>  (355)
3-trifluoromethyl-L-phenylalanine

>  <symbol>  (355)
Phe(3-CF3)

>  <m_abbr>  (355)
Phe(3-CF3)

>  <m_type>  (355)
aa

>  <m_subtype>  (355)
non-natural

>  <m_RgroupIdx>  (355)
15,16,None,None

>  <m_Rgroups>  (355)
H,OH,None,None

>  <m_attachmentPointIdx>  (355)
0,13,None,None

>  <natAnalog>  (355)
F

$$$$

     RDKit          2D

 16 16  0  0  0  0  0  0  0  0999 V2000
    0.7500   -3.8971    0.0000 C   0  0  0  0  0  0  0  0  0  0  0  0
    1.5000   -2.5981    0.0000 C   0  0  0  0  0  0  0  0  0  0  0  0
    3.0000   -2.5981    0.0000 N   0  0  0  0  0  0  0  0  0  0  0  0
    3.7500   -1.2990    0.0000 C   0  0  0  0  0  0  0  0  0  0  0  0
    3.0000    0.0000    0.0000 C   0  0  0  0  0  0  0  0  0  0  0  0
    1.5000    0.0000    0.0000 C   0  0  0  0  0  0  0  0  0  0  0  0
    0.7500   -1.2990    0.0000 C   0  0  0  0  0  0  0  0  0  0  0  0
   -0.7500   -1.2990    0.0000 C   0  0  0  0  0  0  0  0  0  0  0  0
   -1.5000    0.0000    0.0000 C   0  0  0  0  0  0  0  0  0  0  0  0
   -3.0000    0.0000    0.0000 C   0  0  0  0  0  0  0  0  0  0  0  0
   -0.7500    1.2990    0.0000 C   0  0  0  0  0  0  0  0  0  0  0  0
    0.7500    1.2990    0.0000 C   0  0  0  0  0  0  0  0  0  0  0  0
    5.2500   -1.2990    0.0000 C   0  0  0  0  0  0  0  0  0  0  0  0
    6.0000    0.0000    0.0000 O   0  0  0  0  0  0  0  0  0  0  0  0
    3.7500   -3.8971    0.0000 R#  0  0  0  0  0  0  0  0  0  0  0  0
    6.0000   -2.5981    0.0000 R#  0  0  0  0  0  0  0  0  0  0  0  0
  1  2  1  0
  2  3  1  0
  3 15  1  0
  3  4  1  0
  4  5  1  1
  5  6  1  0
  6  7  2  0
  7  8  1  0
  8  9  2  0
  9 10  1  0
  9 11  1  0
 11 12  2  0
  4 13  1  0
 13 16  1  0
 13 14  2  0
 12  6  1  0
M  RGP  2  15   1  16   2
V   15 *
V   16 *
M  END
>  <m_name>  (356)
N-ethyl-4-methyl-L-phenylalanine

>  <symbol>  (356)
Et_Phe(4-Me)

>  <m_abbr>  (356)
Et_Phe(4-Me)

>  <m_type>  (356)
aa

>  <m_subtype>  (356)
non-natural

>  <m_RgroupIdx>  (356)
14,15,None,None

>  <m_Rgroups>  (356)
H,OH,None,None

>  <m_attachmentPointIdx>  (356)
2,12,None,None

>  <natAnalog>  (356)
F

$$$$

     RDKit          2D

 18 18  0  0  0  0  0  0  0  0999 V2000
    6.0000    0.0000    0.0000 N   0  0  0  0  0  0  0  0  0  0  0  0
    5.2500   -1.2990    0.0000 C   0  0  0  0  0  0  0  0  0  0  0  0
    3.7500   -1.2990    0.0000 C   0  0  0  0  0  0  0  0  0  0  0  0
    3.0000    0.0000    0.0000 C   0  0  0  0  0  0  0  0  0  0  0  0
    1.5000    0.0000    0.0000 C   0  0  0  0  0  0  0  0  0  0  0  0
    0.7500   -1.2990    0.0000 C   0  0  0  0  0  0  0  0  0  0  0  0
   -0.7500   -1.2990    0.0000 C   0  0  0  0  0  0  0  0  0  0  0  0
   -1.5000    0.0000    0.0000 C   0  0  0  0  0  0  0  0  0  0  0  0
   -3.0000    0.0000    0.0000 C   0  0  0  0  0  0  0  0  0  0  0  0
   -4.5000    0.0000    0.0000 F   0  0  0  0  0  0  0  0  0  0  0  0
   -3.0000    1.5000    0.0000 F   0  0  0  0  0  0  0  0  0  0  0  0
   -3.0000   -1.5000    0.0000 F   0  0  0  0  0  0  0  0  0  0  0  0
   -0.7500    1.2990    0.0000 C   0  0  0  0  0  0  0  0  0  0  0  0
    0.7500    1.2990    0.0000 C   0  0  0  0  0  0  0  0  0  0  0  0
    6.0000   -2.5981    0.0000 C   0  0  0  0  0  0  0  0  0  0  0  0
    5.2500   -3.8971    0.0000 O   0  0  0  0  0  0  0  0  0  0  0  0
    7.5000    0.0000    0.0000 R#  0  0  0  0  0  0  0  0  0  0  0  0
    7.5000   -2.5981    0.0000 R#  0  0  0  0  0  0  0  0  0  0  0  0
 17  1  1  0
  1  2  1  0
  2  3  1  6
  3  4  1  0
  4  5  1  0
  5  6  2  0
  6  7  1  0
  7  8  2  0
  8  9  1  0
  9 10  1  0
  9 11  1  0
  9 12  1  0
  8 13  1  0
 13 14  2  0
  2 15  1  0
 15 18  1  0
 15 16  2  0
 14  5  1  0
M  RGP  2  17   1  18   2
V   17 *
V   18 *
M  END
>  <m_name>  (357)
4-trifluoromethyl-L-homophe

>  <symbol>  (357)
Hph(4-CF3)

>  <m_abbr>  (357)
Hph(4-CF3)

>  <m_type>  (357)
aa

>  <m_subtype>  (357)
non-natural

>  <m_RgroupIdx>  (357)
16,17,None,None

>  <m_Rgroups>  (357)
H,OH,None,None

>  <m_attachmentPointIdx>  (357)
0,14,None,None

>  <natAnalog>  (357)
F

$$$$

     RDKit          2D

  4  3  0  0  0  0  0  0  0  0999 V2000
    2.5981   -0.0000    0.0000 C   0  0  0  0  0  0  0  0  0  0  0  0
    1.2990    0.7500    0.0000 N   0  0  0  0  0  0  0  0  0  0  0  0
    1.2990    2.2500    0.0000 C   0  0  0  0  0  0  0  0  0  0  0  0
    0.0000    0.0000    0.0000 R#  0  0  0  0  0  0  0  0  0  0  0  0
  1  2  1  0
  2  3  1  0
  2  4  1  0
M  RGP  1   4   1
V    4 *
M  END
>  <m_name>  (358)
C-Terminal dimethylamine

>  <symbol>  (358)
-nme2

>  <m_abbr>  (358)
-nme2

>  <m_type>  (358)
aa

>  <m_subtype>  (358)
non-natural

>  <m_RgroupIdx>  (358)
3,None,None,None

>  <m_Rgroups>  (358)
H,None,None,None

>  <m_attachmentPointIdx>  (358)
1,None,None,None

>  <natAnalog>  (358)
X

$$$$

     RDKit          2D

 15 14  0  0  0  0  0  0  0  0999 V2000
    3.8971    6.7500    0.0000 C   0  0  0  0  0  0  0  0  0  0  0  0
    3.8971    5.2500    0.0000 C   0  0  0  0  0  0  0  0  0  0  0  0
    2.5981    4.5000    0.0000 O   0  0  0  0  0  0  0  0  0  0  0  0
    2.5981    3.0000    0.0000 C   0  0  0  0  0  0  0  0  0  0  0  0
    3.8971    2.2500    0.0000 O   0  0  0  0  0  0  0  0  0  0  0  0
    1.2990    2.2500    0.0000 C   0  0  0  0  0  0  0  0  0  0  0  0
    0.0000    3.0000    0.0000 C   0  0  0  0  0  0  0  0  0  0  0  0
    0.0000    4.5000    0.0000 S   0  0  0  0  0  0  0  0  0  0  0  0
   -1.2990    5.2500    0.0000 C   0  0  0  0  0  0  0  0  0  0  0  0
   -1.2990    6.7500    0.0000 C   0  0  0  0  0  0  0  0  0  0  0  0
    0.0000    7.5000    0.0000 O   0  0  0  0  0  0  0  0  0  0  0  0
    1.2990    0.7500    0.0000 N   0  0  0  0  0  0  0  0  0  0  0  0
    2.5981   -0.0000    0.0000 C   0  0  0  0  0  0  0  0  0  0  0  0
    0.0000    0.0000    0.0000 R#  0  0  0  0  0  0  0  0  0  0  0  0
   -2.5981    7.5000    0.0000 R#  0  0  0  0  0  0  0  0  0  0  0  0
  1  2  1  0
  2  3  1  0
  3  4  1  0
  4  5  2  0
  4  6  1  0
  6  7  1  1
  7  8  1  0
  8  9  1  0
  9 10  1  0
 10 15  1  0
 10 11  2  0
  6 12  1  0
 12 13  1  0
 12 14  1  0
M  RGP  2  14   1  15   2
V   14 *
V   15 *
M  END
>  <symbol>  (359)
Mono115

>  <m_abbr>  (359)
Mono115

>  <m_type>  (359)
aa

>  <m_subtype>  (359)
non-natural

>  <m_RgroupIdx>  (359)
13,14,None,None

>  <m_Rgroups>  (359)
H,OH,None,None

>  <m_attachmentPointIdx>  (359)
11,9,None,None

>  <natAnalog>  (359)
C

$$$$

     RDKit          2D

 12 12  0  0  0  0  0  0  0  0999 V2000
    3.7500    1.2990    0.0000 N   0  0  0  0  0  0  0  0  0  0  0  0
    3.0000    0.0000    0.0000 C   0  0  0  0  0  0  0  0  0  0  0  0
    3.7500   -1.2990    0.0000 C   0  0  0  0  0  0  0  0  0  0  0  0
    3.0000   -2.5981    0.0000 O   0  0  0  0  0  0  0  0  0  0  0  0
    1.5000    0.0000    0.0000 C   0  0  0  0  0  0  0  0  0  0  0  0
    0.7500   -1.2990    0.0000 C   0  0  0  0  0  0  0  0  0  0  0  0
   -0.7500   -1.2990    0.0000 C   0  0  0  0  0  0  0  0  0  0  0  0
   -1.5000    0.0000    0.0000 C   0  0  0  0  0  0  0  0  0  0  0  0
   -0.7500    1.2990    0.0000 C   0  0  0  0  0  0  0  0  0  0  0  0
    0.7500    1.2990    0.0000 C   0  0  0  0  0  0  0  0  0  0  0  0
    5.2500    1.2990    0.0000 R#  0  0  0  0  0  0  0  0  0  0  0  0
    5.2500   -1.2990    0.0000 R#  0  0  0  0  0  0  0  0  0  0  0  0
 11  1  1  0
  2  1  1  6
  2  3  1  0
  3 12  1  0
  3  4  2  0
  2  5  1  0
  5  6  1  0
  6  7  1  0
  7  8  1  0
  8  9  1  0
  9 10  1  0
 10  5  1  0
M  RGP  2  11   1  12   2
V   11 *
V   12 *
M  END
>  <m_name>  (360)
L-cyclohexylglycine

>  <symbol>  (360)
Chg

>  <m_abbr>  (360)
Chg

>  <m_type>  (360)
aa

>  <m_subtype>  (360)
non-natural

>  <m_RgroupIdx>  (360)
10,11,None,None

>  <m_Rgroups>  (360)
H,OH,None,None

>  <m_attachmentPointIdx>  (360)
0,2,None,None

>  <natAnalog>  (360)
G

$$$$

     RDKit          2D

 13 13  0  0  0  0  0  0  0  0999 V2000
    3.0000    2.5981    0.0000 C   0  0  0  0  0  0  0  0  0  0  0  0
    3.7500    1.2990    0.0000 N   0  0  0  0  0  0  0  0  0  0  0  0
    3.0000    0.0000    0.0000 C   0  0  0  0  0  0  0  0  0  0  0  0
    3.7500   -1.2990    0.0000 C   0  0  0  0  0  0  0  0  0  0  0  0
    3.0000   -2.5981    0.0000 O   0  0  0  0  0  0  0  0  0  0  0  0
    1.5000    0.0000    0.0000 C   0  0  0  0  0  0  0  0  0  0  0  0
    0.7500   -1.2990    0.0000 C   0  0  0  0  0  0  0  0  0  0  0  0
   -0.7500   -1.2990    0.0000 C   0  0  0  0  0  0  0  0  0  0  0  0
   -1.5000    0.0000    0.0000 C   0  0  0  0  0  0  0  0  0  0  0  0
   -0.7500    1.2990    0.0000 C   0  0  0  0  0  0  0  0  0  0  0  0
    0.7500    1.2990    0.0000 C   0  0  0  0  0  0  0  0  0  0  0  0
    5.2500    1.2990    0.0000 R#  0  0  0  0  0  0  0  0  0  0  0  0
    5.2500   -1.2990    0.0000 R#  0  0  0  0  0  0  0  0  0  0  0  0
  1  2  1  0
  2 12  1  0
  3  2  1  6
  3  4  1  0
  4 13  1  0
  4  5  2  0
  3  6  1  0
  6  7  1  0
  7  8  1  0
  8  9  1  0
  9 10  1  0
 10 11  1  0
 11  6  1  0
M  RGP  2  12   1  13   2
V   12 *
V   13 *
M  END
>  <m_name>  (361)
N-methyl-L-cyclohexylglycine

>  <symbol>  (361)
Me_Chg

>  <m_abbr>  (361)
Me_Chg

>  <m_type>  (361)
aa

>  <m_subtype>  (361)
non-natural

>  <m_RgroupIdx>  (361)
11,12,None,None

>  <m_Rgroups>  (361)
H,OH,None,None

>  <m_attachmentPointIdx>  (361)
1,3,None,None

>  <natAnalog>  (361)
G

$$$$

     RDKit          2D

 12 11  0  0  0  0  0  0  0  0999 V2000
    3.8971    0.7500    0.0000 C   0  0  0  0  0  0  0  0  0  0  0  0
    2.5981   -0.0000    0.0000 C   0  0  0  0  0  0  0  0  0  0  0  0
    1.2990    0.7500    0.0000 N   0  0  0  0  0  0  0  0  0  0  0  0
    1.2990    2.2500    0.0000 C   0  0  0  0  0  0  0  0  0  0  0  0
    2.5981    3.0000    0.0000 C   0  0  0  0  0  0  0  0  0  0  0  0
    2.5981    4.5000    0.0000 C   0  0  0  0  0  0  0  0  0  0  0  0
    3.8971    5.2500    0.0000 C   0  0  0  0  0  0  0  0  0  0  0  0
    1.2990    5.2500    0.0000 C   0  0  0  0  0  0  0  0  0  0  0  0
    0.0000    3.0000    0.0000 C   0  0  0  0  0  0  0  0  0  0  0  0
   -1.2990    2.2500    0.0000 O   0  0  0  0  0  0  0  0  0  0  0  0
    0.0000    0.0000    0.0000 R#  0  0  0  0  0  0  0  0  0  0  0  0
    0.0000    4.5000    0.0000 R#  0  0  0  0  0  0  0  0  0  0  0  0
  1  2  1  0
  2  3  1  0
  3 11  1  0
  3  4  1  0
  4  5  1  6
  5  6  1  0
  6  7  1  0
  6  8  1  0
  4  9  1  0
  9 12  1  0
  9 10  2  0
M  RGP  2  11   1  12   2
V   11 *
V   12 *
M  END
>  <m_name>  (362)
N-ethyl-L-leucine

>  <symbol>  (362)
Et_Leu

>  <m_abbr>  (362)
Et_Leu

>  <m_type>  (362)
aa

>  <m_subtype>  (362)
non-natural

>  <m_RgroupIdx>  (362)
10,11,None,None

>  <m_Rgroups>  (362)
H,OH,None,None

>  <m_attachmentPointIdx>  (362)
2,8,None,None

>  <natAnalog>  (362)
L

$$$$

     RDKit          2D

 10  9  0  0  0  0  0  0  0  0999 V2000
    3.8971    5.2500    0.0000 C   0  0  0  0  0  0  0  0  0  0  0  0
    2.5981    4.5000    0.0000 O   0  0  0  0  0  0  0  0  0  0  0  0
    2.5981    3.0000    0.0000 C   0  0  0  0  0  0  0  0  0  0  0  0
    1.2990    2.2500    0.0000 C   0  0  0  0  0  0  0  0  0  0  0  0
    0.0000    3.0000    0.0000 C   0  0  0  0  0  0  0  0  0  0  0  0
   -1.2990    2.2500    0.0000 O   0  0  0  0  0  0  0  0  0  0  0  0
    1.2990    0.7500    0.0000 N   0  0  0  0  0  0  0  0  0  0  0  0
    2.5981   -0.0000    0.0000 C   0  0  0  0  0  0  0  0  0  0  0  0
    0.0000    0.0000    0.0000 R#  0  0  0  0  0  0  0  0  0  0  0  0
    0.0000    4.5000    0.0000 R#  0  0  0  0  0  0  0  0  0  0  0  0
  1  2  1  0
  2  3  1  0
  4  3  1  6
  4  5  1  0
  5 10  1  0
  5  6  2  0
  4  7  1  0
  7  8  1  0
  7  9  1  0
M  RGP  2   9   1  10   2
V    9 *
V   10 *
M  END
>  <m_name>  (363)
N,O-dimethyl-L-serine

>  <symbol>  (363)
Me_Ser(Me)

>  <m_abbr>  (363)
Me_Ser(Me)

>  <m_type>  (363)
aa

>  <m_subtype>  (363)
non-natural

>  <m_RgroupIdx>  (363)
8,9,None,None

>  <m_Rgroups>  (363)
H,OH,None,None

>  <m_attachmentPointIdx>  (363)
6,4,None,None

>  <natAnalog>  (363)
S

$$$$

     RDKit          2D

 11 10  0  0  0  0  0  0  0  0999 V2000
    3.8971    6.7500    0.0000 C   0  0  0  0  0  0  0  0  0  0  0  0
    3.8971    5.2500    0.0000 O   0  0  0  0  0  0  0  0  0  0  0  0
    2.5981    4.5000    0.0000 C   0  0  0  0  0  0  0  0  0  0  0  0
    2.5981    3.0000    0.0000 C   0  0  0  0  0  0  0  0  0  0  0  0
    1.2990    2.2500    0.0000 C   0  0  0  0  0  0  0  0  0  0  0  0
    0.0000    3.0000    0.0000 C   0  0  0  0  0  0  0  0  0  0  0  0
   -1.2990    2.2500    0.0000 O   0  0  0  0  0  0  0  0  0  0  0  0
    1.2990    0.7500    0.0000 N   0  0  0  0  0  0  0  0  0  0  0  0
    2.5981   -0.0000    0.0000 C   0  0  0  0  0  0  0  0  0  0  0  0
    0.0000    0.0000    0.0000 R#  0  0  0  0  0  0  0  0  0  0  0  0
    0.0000    4.5000    0.0000 R#  0  0  0  0  0  0  0  0  0  0  0  0
  1  2  1  0
  2  3  1  0
  3  4  1  0
  5  4  1  6
  5  6  1  0
  6 11  1  0
  6  7  2  0
  5  8  1  0
  8  9  1  0
  8 10  1  0
M  RGP  2  10   1  11   2
V   10 *
V   11 *
M  END
>  <m_name>  (364)
N,O-dimethyl-L-homoserine

>  <symbol>  (364)
Me_Hse(Me)

>  <m_abbr>  (364)
Me_Hse(Me)

>  <m_type>  (364)
aa

>  <m_subtype>  (364)
non-natural

>  <m_RgroupIdx>  (364)
9,10,None,None

>  <m_Rgroups>  (364)
H,OH,None,None

>  <m_attachmentPointIdx>  (364)
7,5,None,None

>  <natAnalog>  (364)
S

$$$$

     RDKit          2D

  9  9  0  0  0  0  0  0  0  0999 V2000
    3.1160    1.2990    0.0000 N   0  0  0  0  0  0  0  0  0  0  0  0
    2.3660    0.0000    0.0000 C   0  0  0  0  0  0  0  0  0  0  0  0
    3.1160   -1.2990    0.0000 C   0  0  0  0  0  0  0  0  0  0  0  0
    2.3660   -2.5981    0.0000 O   0  0  0  0  0  0  0  0  0  0  0  0
    0.8660    0.0000    0.0000 C   0  0  0  0  0  0  0  0  0  0  0  0
   -0.4330    0.7500    0.0000 C   0  0  0  0  0  0  0  0  0  0  0  0
   -0.4330   -0.7500    0.0000 C   0  0  0  0  0  0  0  0  0  0  0  0
    4.6160    1.2990    0.0000 R#  0  0  0  0  0  0  0  0  0  0  0  0
    4.6160   -1.2990    0.0000 R#  0  0  0  0  0  0  0  0  0  0  0  0
  8  1  1  0
  2  1  1  6
  2  3  1  0
  3  9  1  0
  3  4  2  0
  2  5  1  0
  5  6  1  0
  6  7  1  0
  7  5  1  0
M  RGP  2   8   1   9   2
V    8 *
V    9 *
M  END
>  <m_name>  (365)
L-cyclopropylglycine

>  <symbol>  (365)
Gly(cPr)

>  <m_abbr>  (365)
Gly(cPr)

>  <m_type>  (365)
aa

>  <m_subtype>  (365)
non-natural

>  <m_RgroupIdx>  (365)
7,8,None,None

>  <m_Rgroups>  (365)
H,OH,None,None

>  <m_attachmentPointIdx>  (365)
0,2,None,None

>  <natAnalog>  (365)
G

$$$$

     RDKit          2D

 10 10  0  0  0  0  0  0  0  0999 V2000
    2.3660    2.5981    0.0000 C   0  0  0  0  0  0  0  0  0  0  0  0
    3.1160    1.2990    0.0000 N   0  0  0  0  0  0  0  0  0  0  0  0
    2.3660    0.0000    0.0000 C   0  0  0  0  0  0  0  0  0  0  0  0
    3.1160   -1.2990    0.0000 C   0  0  0  0  0  0  0  0  0  0  0  0
    2.3660   -2.5981    0.0000 O   0  0  0  0  0  0  0  0  0  0  0  0
    0.8660    0.0000    0.0000 C   0  0  0  0  0  0  0  0  0  0  0  0
   -0.4330    0.7500    0.0000 C   0  0  0  0  0  0  0  0  0  0  0  0
   -0.4330   -0.7500    0.0000 C   0  0  0  0  0  0  0  0  0  0  0  0
    4.6160    1.2990    0.0000 R#  0  0  0  0  0  0  0  0  0  0  0  0
    4.6160   -1.2990    0.0000 R#  0  0  0  0  0  0  0  0  0  0  0  0
  1  2  1  0
  2  9  1  0
  3  2  1  6
  3  4  1  0
  4 10  1  0
  4  5  2  0
  3  6  1  0
  6  7  1  0
  7  8  1  0
  8  6  1  0
M  RGP  2   9   1  10   2
V    9 *
V   10 *
M  END
>  <m_name>  (366)
N-methyl-L-cyclopropylglycine

>  <symbol>  (366)
Me_Gly(cPr)

>  <m_abbr>  (366)
Me_Gly(cPr)

>  <m_type>  (366)
aa

>  <m_subtype>  (366)
non-natural

>  <m_RgroupIdx>  (366)
8,9,None,None

>  <m_Rgroups>  (366)
H,OH,None,None

>  <m_attachmentPointIdx>  (366)
1,3,None,None

>  <natAnalog>  (366)
G

$$$$

     RDKit          2D

 10 10  0  0  0  0  0  0  0  0999 V2000
    3.3107    1.2990    0.0000 N   0  0  0  0  0  0  0  0  0  0  0  0
    2.5607    0.0000    0.0000 C   0  0  0  0  0  0  0  0  0  0  0  0
    3.3107   -1.2990    0.0000 C   0  0  0  0  0  0  0  0  0  0  0  0
    2.5607   -2.5981    0.0000 O   0  0  0  0  0  0  0  0  0  0  0  0
    1.0607    0.0000    0.0000 C   0  0  0  0  0  0  0  0  0  0  0  0
   -0.0000   -1.0607    0.0000 C   0  0  0  0  0  0  0  0  0  0  0  0
   -1.0607    0.0000    0.0000 C   0  0  0  0  0  0  0  0  0  0  0  0
    0.0000    1.0607    0.0000 C   0  0  0  0  0  0  0  0  0  0  0  0
    4.8107    1.2990    0.0000 R#  0  0  0  0  0  0  0  0  0  0  0  0
    4.8107   -1.2990    0.0000 R#  0  0  0  0  0  0  0  0  0  0  0  0
  9  1  1  0
  2  1  1  6
  2  3  1  0
  3 10  1  0
  3  4  2  0
  2  5  1  0
  5  6  1  0
  6  7  1  0
  7  8  1  0
  8  5  1  0
M  RGP  2   9   1  10   2
V    9 *
V   10 *
M  END
>  <m_name>  (367)
2-cyclobutyl-L-glycine

>  <symbol>  (367)
Gly(cBu)

>  <m_abbr>  (367)
Gly(cBu)

>  <m_type>  (367)
aa

>  <m_subtype>  (367)
non-natural

>  <m_RgroupIdx>  (367)
8,9,None,None

>  <m_Rgroups>  (367)
H,OH,None,None

>  <m_attachmentPointIdx>  (367)
0,2,None,None

>  <natAnalog>  (367)
G

$$$$

     RDKit          2D

 11 11  0  0  0  0  0  0  0  0999 V2000
    2.5607    2.5981    0.0000 C   0  0  0  0  0  0  0  0  0  0  0  0
    3.3107    1.2990    0.0000 N   0  0  0  0  0  0  0  0  0  0  0  0
    2.5607    0.0000    0.0000 C   0  0  0  0  0  0  0  0  0  0  0  0
    3.3107   -1.2990    0.0000 C   0  0  0  0  0  0  0  0  0  0  0  0
    2.5607   -2.5981    0.0000 O   0  0  0  0  0  0  0  0  0  0  0  0
    1.0607    0.0000    0.0000 C   0  0  0  0  0  0  0  0  0  0  0  0
   -0.0000   -1.0607    0.0000 C   0  0  0  0  0  0  0  0  0  0  0  0
   -1.0607    0.0000    0.0000 C   0  0  0  0  0  0  0  0  0  0  0  0
    0.0000    1.0607    0.0000 C   0  0  0  0  0  0  0  0  0  0  0  0
    4.8107    1.2990    0.0000 R#  0  0  0  0  0  0  0  0  0  0  0  0
    4.8107   -1.2990    0.0000 R#  0  0  0  0  0  0  0  0  0  0  0  0
  1  2  1  0
  2 10  1  0
  3  2  1  6
  3  4  1  0
  4 11  1  0
  4  5  2  0
  3  6  1  0
  6  7  1  0
  7  8  1  0
  8  9  1  0
  9  6  1  0
M  RGP  2  10   1  11   2
V   10 *
V   11 *
M  END
>  <m_name>  (368)
N-methyl-2-cyclobutyl-L-glycine

>  <symbol>  (368)
Me_Gly(cBu)

>  <m_abbr>  (368)
Me_Gly(cBu)

>  <m_type>  (368)
aa

>  <m_subtype>  (368)
non-natural

>  <m_RgroupIdx>  (368)
9,10,None,None

>  <m_Rgroups>  (368)
H,OH,None,None

>  <m_attachmentPointIdx>  (368)
1,3,None,None

>  <natAnalog>  (368)
G

$$$$

     RDKit          2D

 11 11  0  0  0  0  0  0  0  0999 V2000
    3.5260    1.2990    0.0000 N   0  0  0  0  0  0  0  0  0  0  0  0
    2.7760    0.0000    0.0000 C   0  0  0  0  0  0  0  0  0  0  0  0
    3.5260   -1.2990    0.0000 C   0  0  0  0  0  0  0  0  0  0  0  0
    2.7760   -2.5981    0.0000 O   0  0  0  0  0  0  0  0  0  0  0  0
    1.2760    0.0000    0.0000 C   0  0  0  0  0  0  0  0  0  0  0  0
    0.3943    1.2135    0.0000 C   0  0  0  0  0  0  0  0  0  0  0  0
   -1.0323    0.7500    0.0000 C   0  0  0  0  0  0  0  0  0  0  0  0
   -1.0323   -0.7500    0.0000 C   0  0  0  0  0  0  0  0  0  0  0  0
    0.3943   -1.2135    0.0000 C   0  0  0  0  0  0  0  0  0  0  0  0
    5.0260    1.2990    0.0000 R#  0  0  0  0  0  0  0  0  0  0  0  0
    5.0260   -1.2990    0.0000 R#  0  0  0  0  0  0  0  0  0  0  0  0
 10  1  1  0
  2  1  1  6
  2  3  1  0
  3 11  1  0
  3  4  2  0
  2  5  1  0
  5  6  1  0
  6  7  1  0
  7  8  1  0
  8  9  1  0
  9  5  1  0
M  RGP  2  10   1  11   2
V   10 *
V   11 *
M  END
>  <m_name>  (369)
L-cyclopentylglycine

>  <symbol>  (369)
Gly(cPent)

>  <m_abbr>  (369)
Gly(cPent)

>  <m_type>  (369)
aa

>  <m_subtype>  (369)
non-natural

>  <m_RgroupIdx>  (369)
9,10,None,None

>  <m_Rgroups>  (369)
H,OH,None,None

>  <m_attachmentPointIdx>  (369)
0,2,None,None

>  <natAnalog>  (369)
G

$$$$

     RDKit          2D

 10 10  0  0  0  0  0  0  0  0999 V2000
    2.3660   -2.5981    0.0000 N   0  0  0  0  0  0  0  0  0  0  0  0
    3.1160   -1.2990    0.0000 C   0  0  0  0  0  0  0  0  0  0  0  0
    2.3660    0.0000    0.0000 C   0  0  0  0  0  0  0  0  0  0  0  0
    0.8660    0.0000    0.0000 C   0  0  0  0  0  0  0  0  0  0  0  0
   -0.4330    0.7500    0.0000 C   0  0  0  0  0  0  0  0  0  0  0  0
   -0.4330   -0.7500    0.0000 C   0  0  0  0  0  0  0  0  0  0  0  0
    4.6160   -1.2990    0.0000 C   0  0  0  0  0  0  0  0  0  0  0  0
    5.3660    0.0000    0.0000 O   0  0  0  0  0  0  0  0  0  0  0  0
    3.1160   -3.8971    0.0000 R#  0  0  0  0  0  0  0  0  0  0  0  0
    5.3660   -2.5981    0.0000 R#  0  0  0  0  0  0  0  0  0  0  0  0
  9  1  1  0
  1  2  1  0
  2  3  1  1
  3  4  1  0
  4  5  1  0
  5  6  1  0
  2  7  1  0
  7 10  1  0
  7  8  2  0
  6  4  1  0
M  RGP  2   9   1  10   2
V    9 *
V   10 *
M  END
>  <m_name>  (370)
L-cyclopropylalanine

>  <symbol>  (370)
Ala(cPr)

>  <m_abbr>  (370)
Ala(cPr)

>  <m_type>  (370)
aa

>  <m_subtype>  (370)
non-natural

>  <m_RgroupIdx>  (370)
8,9,None,None

>  <m_Rgroups>  (370)
H,OH,None,None

>  <m_attachmentPointIdx>  (370)
0,6,None,None

>  <natAnalog>  (370)
A

$$$$

     RDKit          2D

 11 11  0  0  0  0  0  0  0  0999 V2000
    2.5607   -2.5981    0.0000 N   0  0  0  0  0  0  0  0  0  0  0  0
    3.3107   -1.2990    0.0000 C   0  0  0  0  0  0  0  0  0  0  0  0
    2.5607    0.0000    0.0000 C   0  0  0  0  0  0  0  0  0  0  0  0
    1.0607    0.0000    0.0000 C   0  0  0  0  0  0  0  0  0  0  0  0
   -0.0000   -1.0607    0.0000 C   0  0  0  0  0  0  0  0  0  0  0  0
   -1.0607    0.0000    0.0000 C   0  0  0  0  0  0  0  0  0  0  0  0
    0.0000    1.0607    0.0000 C   0  0  0  0  0  0  0  0  0  0  0  0
    4.8107   -1.2990    0.0000 C   0  0  0  0  0  0  0  0  0  0  0  0
    5.5607    0.0000    0.0000 O   0  0  0  0  0  0  0  0  0  0  0  0
    3.3107   -3.8971    0.0000 R#  0  0  0  0  0  0  0  0  0  0  0  0
    5.5607   -2.5981    0.0000 R#  0  0  0  0  0  0  0  0  0  0  0  0
 10  1  1  0
  1  2  1  0
  2  3  1  1
  3  4  1  0
  4  5  1  0
  5  6  1  0
  6  7  1  0
  2  8  1  0
  8 11  1  0
  8  9  2  0
  7  4  1  0
M  RGP  2  10   1  11   2
V   10 *
V   11 *
M  END
>  <m_name>  (371)
3-cyclobutyl-L-alanine

>  <symbol>  (371)
Ala(cBu)

>  <m_abbr>  (371)
Ala(cBu)

>  <m_type>  (371)
aa

>  <m_subtype>  (371)
non-natural

>  <m_RgroupIdx>  (371)
9,10,None,None

>  <m_Rgroups>  (371)
H,OH,None,None

>  <m_attachmentPointIdx>  (371)
0,7,None,None

>  <natAnalog>  (371)
A

$$$$

     RDKit          2D

 12 12  0  0  0  0  0  0  0  0999 V2000
    2.7760   -2.5981    0.0000 N   0  0  0  0  0  0  0  0  0  0  0  0
    3.5260   -1.2990    0.0000 C   0  0  0  0  0  0  0  0  0  0  0  0
    2.7760    0.0000    0.0000 C   0  0  0  0  0  0  0  0  0  0  0  0
    1.2760    0.0000    0.0000 C   0  0  0  0  0  0  0  0  0  0  0  0
    0.3943    1.2135    0.0000 C   0  0  0  0  0  0  0  0  0  0  0  0
   -1.0323    0.7500    0.0000 C   0  0  0  0  0  0  0  0  0  0  0  0
   -1.0323   -0.7500    0.0000 C   0  0  0  0  0  0  0  0  0  0  0  0
    0.3943   -1.2135    0.0000 C   0  0  0  0  0  0  0  0  0  0  0  0
    5.0260   -1.2990    0.0000 C   0  0  0  0  0  0  0  0  0  0  0  0
    5.7760    0.0000    0.0000 O   0  0  0  0  0  0  0  0  0  0  0  0
    3.5260   -3.8971    0.0000 R#  0  0  0  0  0  0  0  0  0  0  0  0
    5.7760   -2.5981    0.0000 R#  0  0  0  0  0  0  0  0  0  0  0  0
 11  1  1  0
  1  2  1  0
  2  3  1  1
  3  4  1  0
  4  5  1  0
  5  6  1  0
  6  7  1  0
  7  8  1  0
  2  9  1  0
  9 12  1  0
  9 10  2  0
  8  4  1  0
M  RGP  2  11   1  12   2
V   11 *
V   12 *
M  END
>  <m_name>  (372)
3-cyclopentane-L-alanine

>  <symbol>  (372)
Ala(cPent)

>  <m_abbr>  (372)
Ala(cPent)

>  <m_type>  (372)
aa

>  <m_subtype>  (372)
non-natural

>  <m_RgroupIdx>  (372)
10,11,None,None

>  <m_Rgroups>  (372)
H,OH,None,None

>  <m_attachmentPointIdx>  (372)
0,8,None,None

>  <natAnalog>  (372)
A

$$$$

     RDKit          2D

 12 11  0  0  0  0  0  0  0  0999 V2000
    2.5981   -0.0000    0.0000 C   0  0  0  0  0  0  0  0  0  0  0  0
    1.2990    0.7500    0.0000 N   0  0  0  0  0  0  0  0  0  0  0  0
    1.2990    2.2500    0.0000 C   0  0  0  0  0  0  0  0  0  0  0  0
    2.5981    3.0000    0.0000 C   0  0  0  0  0  0  0  0  0  0  0  0
    2.5981    4.5000    0.0000 C   0  0  0  0  0  0  0  0  0  0  0  0
    3.8971    5.2500    0.0000 C   0  0  0  0  0  0  0  0  0  0  0  0
    3.8971    6.7500    0.0000 F   0  0  0  0  0  0  0  0  0  0  0  0
    5.1962    4.5000    0.0000 F   0  0  0  0  0  0  0  0  0  0  0  0
    0.0000    3.0000    0.0000 C   0  0  0  0  0  0  0  0  0  0  0  0
   -1.2990    2.2500    0.0000 O   0  0  0  0  0  0  0  0  0  0  0  0
    0.0000    0.0000    0.0000 R#  0  0  0  0  0  0  0  0  0  0  0  0
    0.0000    4.5000    0.0000 R#  0  0  0  0  0  0  0  0  0  0  0  0
  1  2  1  0
  2 11  1  0
  2  3  1  0
  3  4  1  6
  4  5  1  0
  5  6  1  0
  6  7  1  0
  6  8  1  0
  3  9  1  0
  9 12  1  0
  9 10  2  0
M  RGP  2  11   1  12   2
V   11 *
V   12 *
M  END
>  <symbol>  (373)
Me_Nva(F2)

>  <m_abbr>  (373)
Me_Nva(F2)

>  <m_type>  (373)
aa

>  <m_subtype>  (373)
non-natural

>  <m_RgroupIdx>  (373)
10,11,None,None

>  <m_Rgroups>  (373)
H,OH,None,None

>  <m_attachmentPointIdx>  (373)
1,8,None,None

>  <natAnalog>  (373)
V

$$$$

     RDKit          2D

  7  7  0  0  0  0  0  0  0  0999 V2000
    1.5000    0.0000    0.0000 N   0  0  0  0  0  0  0  0  0  0  0  0
    0.7500   -1.2990    0.0000 C   0  0  0  0  0  0  0  0  0  0  0  0
   -0.7500   -1.2990    0.0000 C   0  0  0  0  0  0  0  0  0  0  0  0
   -1.5000    0.0000    0.0000 O   0  0  0  0  0  0  0  0  0  0  0  0
   -0.7500    1.2990    0.0000 C   0  0  0  0  0  0  0  0  0  0  0  0
    0.7500    1.2990    0.0000 C   0  0  0  0  0  0  0  0  0  0  0  0
    3.0000    0.0000    0.0000 R#  0  0  0  0  0  0  0  0  0  0  0  0
  7  1  1  0
  1  2  1  0
  2  3  1  0
  3  4  1  0
  4  5  1  0
  5  6  1  0
  6  1  1  0
M  RGP  1   7   1
V    7 *
M  END
>  <m_name>  (374)
C-Terminal morpholineamide

>  <symbol>  (374)
-mor

>  <m_abbr>  (374)
-mor

>  <m_type>  (374)
aa

>  <m_subtype>  (374)
non-natural

>  <m_RgroupIdx>  (374)
6,None,None,None

>  <m_Rgroups>  (374)
H,None,None,None

>  <m_attachmentPointIdx>  (374)
0,None,None,None

>  <natAnalog>  (374)
X

$$$$

     RDKit          2D

  5  5  0  0  0  0  0  0  0  0999 V2000
    1.0607    0.0000    0.0000 N   0  0  0  0  0  0  0  0  0  0  0  0
   -0.0000   -1.0607    0.0000 C   0  0  0  0  0  0  0  0  0  0  0  0
   -1.0607    0.0000    0.0000 C   0  0  0  0  0  0  0  0  0  0  0  0
    0.0000    1.0607    0.0000 C   0  0  0  0  0  0  0  0  0  0  0  0
    2.5607    0.0000    0.0000 R#  0  0  0  0  0  0  0  0  0  0  0  0
  5  1  1  0
  1  2  1  0
  2  3  1  0
  3  4  1  0
  4  1  1  0
M  RGP  1   5   1
V    5 *
M  END
>  <m_name>  (375)
C-Terminal azetidine

>  <symbol>  (375)
-aze

>  <m_abbr>  (375)
-aze

>  <m_type>  (375)
aa

>  <m_subtype>  (375)
non-natural

>  <m_RgroupIdx>  (375)
4,None,None,None

>  <m_Rgroups>  (375)
H,None,None,None

>  <m_attachmentPointIdx>  (375)
0,None,None,None

>  <natAnalog>  (375)
X

$$$$

     RDKit          2D

 13 13  0  0  0  0  0  0  0  0999 V2000
    2.7760   -2.5981    0.0000 C   0  0  0  0  0  0  0  0  0  0  0  0
    3.5260   -1.2990    0.0000 N   0  0  0  0  0  0  0  0  0  0  0  0
    2.7760    0.0000    0.0000 C   0  0  0  0  0  0  0  0  0  0  0  0
    1.2760    0.0000    0.0000 C   0  0  0  0  0  0  0  0  0  0  0  0
    0.3943    1.2135    0.0000 C   0  0  0  0  0  0  0  0  0  0  0  0
   -1.0323    0.7500    0.0000 N   0  0  0  0  0  0  0  0  0  0  0  0
   -2.2458    1.6317    0.0000 C   0  0  0  0  0  0  0  0  0  0  0  0
   -2.0890    3.1235    0.0000 C   0  0  0  0  0  0  0  0  0  0  0  0
   -0.7187    3.7336    0.0000 O   0  0  0  0  0  0  0  0  0  0  0  0
   -1.0323   -0.7500    0.0000 N   0  0  0  0  0  0  0  0  0  0  0  0
    0.3943   -1.2135    0.0000 N   0  0  0  0  0  0  0  0  0  0  0  0
    5.0260   -1.2990    0.0000 R#  0  0  0  0  0  0  0  0  0  0  0  0
   -3.3025    4.0051    0.0000 R#  0  0  0  0  0  0  0  0  0  0  0  0
  1  2  1  0
  2 12  1  0
  2  3  1  0
  3  4  1  0
  4  5  2  0
  5  6  1  0
  6  7  1  0
  7  8  1  0
  8 13  1  0
  8  9  2  0
  6 10  1  0
 10 11  2  0
 11  4  1  0
M  RGP  2  12   1  13   2
V   12 *
V   13 *
M  END
>  <symbol>  (376)
Mono116

>  <m_abbr>  (376)
Mono116

>  <m_type>  (376)
aa

>  <m_subtype>  (376)
non-natural

>  <m_RgroupIdx>  (376)
11,12,None,None

>  <m_Rgroups>  (376)
H,OH,None,None

>  <m_attachmentPointIdx>  (376)
1,7,None,None

>  <natAnalog>  (376)
X

$$$$

     RDKit          2D

 21 22  0  0  0  0  0  0  0  0999 V2000
   -6.3650   -2.0727    0.0000 N   0  0  0  0  0  0  0  0  0  0  0  0
   -6.5218   -3.5645    0.0000 C   0  0  0  0  0  0  0  0  0  0  0  0
   -5.3083   -4.4462    0.0000 C   0  0  0  0  0  0  0  0  0  0  0  0
   -5.3083   -5.9462    0.0000 C   0  0  0  0  0  0  0  0  0  0  0  0
   -3.8817   -6.4097    0.0000 C   0  0  0  0  0  0  0  0  0  0  0  0
   -3.0000   -5.1962    0.0000 C   0  0  0  0  0  0  0  0  0  0  0  0
   -1.5000   -5.1962    0.0000 C   0  0  0  0  0  0  0  0  0  0  0  0
   -0.7500   -3.8971    0.0000 N   0  0  0  0  0  0  0  0  0  0  0  0
    0.7500   -3.8971    0.0000 C   0  0  0  0  0  0  0  0  0  0  0  0
    1.5000   -2.5981    0.0000 C   0  0  0  0  0  0  0  0  0  0  0  0
    0.7500   -1.2990    0.0000 C   0  0  0  0  0  0  0  0  0  0  0  0
    1.5000    0.0000    0.0000 C   0  0  0  0  0  0  0  0  0  0  0  0
    0.7500    1.2990    0.0000 C   0  0  0  0  0  0  0  0  0  0  0  0
   -0.7500    1.2990    0.0000 C   0  0  0  0  0  0  0  0  0  0  0  0
   -1.5000    0.0000    0.0000 C   0  0  0  0  0  0  0  0  0  0  0  0
   -0.7500   -1.2990    0.0000 C   0  0  0  0  0  0  0  0  0  0  0  0
    1.5000   -5.1962    0.0000 C   0  0  0  0  0  0  0  0  0  0  0  0
    3.0000   -5.1962    0.0000 O   0  0  0  0  0  0  0  0  0  0  0  0
   -3.8817   -3.9826    0.0000 N   0  0  0  0  0  0  0  0  0  0  0  0
   -7.5785   -1.1910    0.0000 R#  0  0  0  0  0  0  0  0  0  0  0  0
    0.7500   -6.4952    0.0000 R#  0  0  0  0  0  0  0  0  0  0  0  0
 20  1  1  0
  1  2  1  0
  2  3  1  0
  3  4  2  0
  4  5  1  0
  5  6  2  0
  6  7  1  0
  7  8  1  0
  8  9  1  0
  9 10  1  1
 10 11  1  0
 11 12  2  0
 12 13  1  0
 13 14  2  0
 14 15  1  0
 15 16  2  0
  9 17  1  0
 17 21  1  0
 17 18  2  0
  6 19  1  0
 19  3  1  0
 16 11  1  0
M  RGP  2  20   1  21   2
V   20 *
V   21 *
M  END
>  <symbol>  (377)
Mono117

>  <m_abbr>  (377)
Mono117

>  <m_type>  (377)
aa

>  <m_subtype>  (377)
non-natural

>  <m_RgroupIdx>  (377)
19,20,None,None

>  <m_Rgroups>  (377)
H,OH,None,None

>  <m_attachmentPointIdx>  (377)
0,16,None,None

>  <natAnalog>  (377)
F

$$$$

     RDKit          2D

 22 23  0  0  0  0  0  0  0  0999 V2000
   -1.5000   -5.1962    0.0000 C   0  0  0  0  0  0  0  0  0  0  0  0
   -0.7500   -3.8971    0.0000 N   0  0  0  0  0  0  0  0  0  0  0  0
   -1.5000   -2.5981    0.0000 C   0  0  0  0  0  0  0  0  0  0  0  0
   -3.0000   -2.5981    0.0000 C   0  0  0  0  0  0  0  0  0  0  0  0
   -3.8817   -3.8116    0.0000 C   0  0  0  0  0  0  0  0  0  0  0  0
   -5.3083   -3.3481    0.0000 C   0  0  0  0  0  0  0  0  0  0  0  0
   -5.3083   -1.8481    0.0000 C   0  0  0  0  0  0  0  0  0  0  0  0
   -6.5218   -0.9664    0.0000 C   0  0  0  0  0  0  0  0  0  0  0  0
   -6.3650    0.5254    0.0000 N   0  0  0  0  0  0  0  0  0  0  0  0
   -3.8817   -1.3846    0.0000 N   0  0  0  0  0  0  0  0  0  0  0  0
    0.7500   -3.8971    0.0000 C   0  0  0  0  0  0  0  0  0  0  0  0
    1.5000   -2.5981    0.0000 C   0  0  0  0  0  0  0  0  0  0  0  0
    0.7500   -1.2990    0.0000 C   0  0  0  0  0  0  0  0  0  0  0  0
    1.5000    0.0000    0.0000 C   0  0  0  0  0  0  0  0  0  0  0  0
    0.7500    1.2990    0.0000 C   0  0  0  0  0  0  0  0  0  0  0  0
   -0.7500    1.2990    0.0000 C   0  0  0  0  0  0  0  0  0  0  0  0
   -1.5000    0.0000    0.0000 C   0  0  0  0  0  0  0  0  0  0  0  0
   -0.7500   -1.2990    0.0000 C   0  0  0  0  0  0  0  0  0  0  0  0
    1.5000   -5.1962    0.0000 C   0  0  0  0  0  0  0  0  0  0  0  0
    3.0000   -5.1962    0.0000 O   0  0  0  0  0  0  0  0  0  0  0  0
   -7.5785    1.4071    0.0000 R#  0  0  0  0  0  0  0  0  0  0  0  0
    0.7500   -6.4952    0.0000 R#  0  0  0  0  0  0  0  0  0  0  0  0
  1  2  1  0
  2  3  1  0
  3  4  1  0
  4  5  2  0
  5  6  1  0
  6  7  2  0
  7  8  1  0
  8  9  1  0
  9 21  1  0
  7 10  1  0
  2 11  1  0
 11 12  1  1
 12 13  1  0
 13 14  2  0
 14 15  1  0
 15 16  2  0
 16 17  1  0
 17 18  2  0
 11 19  1  0
 19 22  1  0
 19 20  2  0
 10  4  1  0
 18 13  1  0
M  RGP  2  21   1  22   2
V   21 *
V   22 *
M  END
>  <symbol>  (378)
Mono118

>  <m_abbr>  (378)
Mono118

>  <m_type>  (378)
aa

>  <m_subtype>  (378)
non-natural

>  <m_RgroupIdx>  (378)
20,21,None,None

>  <m_Rgroups>  (378)
H,OH,None,None

>  <m_attachmentPointIdx>  (378)
8,18,None,None

>  <natAnalog>  (378)
F

$$$$

     RDKit          2D

 22 23  0  0  0  0  0  0  0  0999 V2000
   -3.4182   -2.5560    0.0000 C   0  0  0  0  0  0  0  0  0  0  0  0
   -3.8817   -3.9826    0.0000 N   0  0  0  0  0  0  0  0  0  0  0  0
   -5.3083   -4.4462    0.0000 C   0  0  0  0  0  0  0  0  0  0  0  0
   -6.5218   -3.5645    0.0000 C   0  0  0  0  0  0  0  0  0  0  0  0
   -7.8921   -4.1746    0.0000 N   0  0  0  0  0  0  0  0  0  0  0  0
   -5.3083   -5.9462    0.0000 C   0  0  0  0  0  0  0  0  0  0  0  0
   -3.8817   -6.4097    0.0000 C   0  0  0  0  0  0  0  0  0  0  0  0
   -3.0000   -5.1962    0.0000 C   0  0  0  0  0  0  0  0  0  0  0  0
   -1.5000   -5.1962    0.0000 C   0  0  0  0  0  0  0  0  0  0  0  0
   -0.7500   -3.8971    0.0000 N   0  0  0  0  0  0  0  0  0  0  0  0
    0.7500   -3.8971    0.0000 C   0  0  0  0  0  0  0  0  0  0  0  0
    1.5000   -2.5981    0.0000 C   0  0  0  0  0  0  0  0  0  0  0  0
    0.7500   -1.2990    0.0000 C   0  0  0  0  0  0  0  0  0  0  0  0
    1.5000    0.0000    0.0000 C   0  0  0  0  0  0  0  0  0  0  0  0
    0.7500    1.2990    0.0000 C   0  0  0  0  0  0  0  0  0  0  0  0
   -0.7500    1.2990    0.0000 C   0  0  0  0  0  0  0  0  0  0  0  0
   -1.5000    0.0000    0.0000 C   0  0  0  0  0  0  0  0  0  0  0  0
   -0.7500   -1.2990    0.0000 C   0  0  0  0  0  0  0  0  0  0  0  0
    1.5000   -5.1962    0.0000 C   0  0  0  0  0  0  0  0  0  0  0  0
    3.0000   -5.1962    0.0000 O   0  0  0  0  0  0  0  0  0  0  0  0
   -9.1056   -3.2929    0.0000 R#  0  0  0  0  0  0  0  0  0  0  0  0
    0.7500   -6.4952    0.0000 R#  0  0  0  0  0  0  0  0  0  0  0  0
  1  2  1  0
  2  3  1  0
  3  4  1  0
  4  5  1  0
  5 21  1  0
  3  6  2  0
  6  7  1  0
  7  8  2  0
  8  9  1  0
  9 10  1  0
 10 11  1  0
 11 12  1  1
 12 13  1  0
 13 14  2  0
 14 15  1  0
 15 16  2  0
 16 17  1  0
 17 18  2  0
 11 19  1  0
 19 22  1  0
 19 20  2  0
  8  2  1  0
 18 13  1  0
M  RGP  2  21   1  22   2
V   21 *
V   22 *
M  END
>  <symbol>  (379)
Mono119

>  <m_abbr>  (379)
Mono119

>  <m_type>  (379)
aa

>  <m_subtype>  (379)
non-natural

>  <m_RgroupIdx>  (379)
20,21,None,None

>  <m_Rgroups>  (379)
H,OH,None,None

>  <m_attachmentPointIdx>  (379)
4,18,None,None

>  <natAnalog>  (379)
F

$$$$

     RDKit          2D

 21 22  0  0  0  0  0  0  0  0999 V2000
   -6.3650   -2.0727    0.0000 N   0  0  0  0  0  0  0  0  0  0  0  0
   -6.5218   -3.5645    0.0000 C   0  0  0  0  0  0  0  0  0  0  0  0
   -5.3083   -4.4462    0.0000 C   0  0  0  0  0  0  0  0  0  0  0  0
   -5.3083   -5.9462    0.0000 C   0  0  0  0  0  0  0  0  0  0  0  0
   -3.8817   -6.4097    0.0000 N   0  0  0  0  0  0  0  0  0  0  0  0
   -3.0000   -5.1962    0.0000 C   0  0  0  0  0  0  0  0  0  0  0  0
   -1.5000   -5.1962    0.0000 C   0  0  0  0  0  0  0  0  0  0  0  0
   -0.7500   -3.8971    0.0000 N   0  0  0  0  0  0  0  0  0  0  0  0
    0.7500   -3.8971    0.0000 C   0  0  0  0  0  0  0  0  0  0  0  0
    1.5000   -2.5981    0.0000 C   0  0  0  0  0  0  0  0  0  0  0  0
    0.7500   -1.2990    0.0000 C   0  0  0  0  0  0  0  0  0  0  0  0
    1.5000    0.0000    0.0000 C   0  0  0  0  0  0  0  0  0  0  0  0
    0.7500    1.2990    0.0000 C   0  0  0  0  0  0  0  0  0  0  0  0
   -0.7500    1.2990    0.0000 C   0  0  0  0  0  0  0  0  0  0  0  0
   -1.5000    0.0000    0.0000 C   0  0  0  0  0  0  0  0  0  0  0  0
   -0.7500   -1.2990    0.0000 C   0  0  0  0  0  0  0  0  0  0  0  0
    1.5000   -5.1962    0.0000 C   0  0  0  0  0  0  0  0  0  0  0  0
    3.0000   -5.1962    0.0000 O   0  0  0  0  0  0  0  0  0  0  0  0
   -3.8817   -3.9826    0.0000 C   0  0  0  0  0  0  0  0  0  0  0  0
   -7.5785   -1.1910    0.0000 R#  0  0  0  0  0  0  0  0  0  0  0  0
    0.7500   -6.4952    0.0000 R#  0  0  0  0  0  0  0  0  0  0  0  0
 20  1  1  0
  1  2  1  0
  2  3  1  0
  3  4  2  0
  4  5  1  0
  5  6  1  0
  6  7  1  0
  7  8  1  0
  8  9  1  0
  9 10  1  1
 10 11  1  0
 11 12  2  0
 12 13  1  0
 13 14  2  0
 14 15  1  0
 15 16  2  0
  9 17  1  0
 17 21  1  0
 17 18  2  0
  6 19  2  0
 19  3  1  0
 16 11  1  0
M  RGP  2  20   1  21   2
V   20 *
V   21 *
M  END
>  <symbol>  (380)
Mono120

>  <m_abbr>  (380)
Mono120

>  <m_type>  (380)
aa

>  <m_subtype>  (380)
non-natural

>  <m_RgroupIdx>  (380)
19,20,None,None

>  <m_Rgroups>  (380)
H,OH,None,None

>  <m_attachmentPointIdx>  (380)
0,16,None,None

>  <natAnalog>  (380)
F

$$$$

     RDKit          2D

 22 23  0  0  0  0  0  0  0  0999 V2000
   -3.4182   -2.5560    0.0000 C   0  0  0  0  0  0  0  0  0  0  0  0
   -3.8817   -3.9826    0.0000 N   0  0  0  0  0  0  0  0  0  0  0  0
   -5.3083   -4.4462    0.0000 C   0  0  0  0  0  0  0  0  0  0  0  0
   -5.3083   -5.9462    0.0000 C   0  0  0  0  0  0  0  0  0  0  0  0
   -6.5218   -6.8278    0.0000 C   0  0  0  0  0  0  0  0  0  0  0  0
   -7.8921   -6.2177    0.0000 N   0  0  0  0  0  0  0  0  0  0  0  0
   -3.8817   -6.4097    0.0000 C   0  0  0  0  0  0  0  0  0  0  0  0
   -3.0000   -5.1962    0.0000 C   0  0  0  0  0  0  0  0  0  0  0  0
   -1.5000   -5.1962    0.0000 C   0  0  0  0  0  0  0  0  0  0  0  0
   -0.7500   -3.8971    0.0000 N   0  0  0  0  0  0  0  0  0  0  0  0
    0.7500   -3.8971    0.0000 C   0  0  0  0  0  0  0  0  0  0  0  0
    1.5000   -2.5981    0.0000 C   0  0  0  0  0  0  0  0  0  0  0  0
    0.7500   -1.2990    0.0000 C   0  0  0  0  0  0  0  0  0  0  0  0
    1.5000    0.0000    0.0000 C   0  0  0  0  0  0  0  0  0  0  0  0
    0.7500    1.2990    0.0000 C   0  0  0  0  0  0  0  0  0  0  0  0
   -0.7500    1.2990    0.0000 C   0  0  0  0  0  0  0  0  0  0  0  0
   -1.5000    0.0000    0.0000 C   0  0  0  0  0  0  0  0  0  0  0  0
   -0.7500   -1.2990    0.0000 C   0  0  0  0  0  0  0  0  0  0  0  0
    1.5000   -5.1962    0.0000 C   0  0  0  0  0  0  0  0  0  0  0  0
    3.0000   -5.1962    0.0000 O   0  0  0  0  0  0  0  0  0  0  0  0
   -9.1056   -7.0994    0.0000 R#  0  0  0  0  0  0  0  0  0  0  0  0
    0.7500   -6.4952    0.0000 R#  0  0  0  0  0  0  0  0  0  0  0  0
  1  2  1  0
  2  3  1  0
  3  4  2  0
  4  5  1  0
  5  6  1  0
  6 21  1  0
  4  7  1  0
  7  8  2  0
  8  9  1  0
  9 10  1  0
 10 11  1  0
 11 12  1  1
 12 13  1  0
 13 14  2  0
 14 15  1  0
 15 16  2  0
 16 17  1  0
 17 18  2  0
 11 19  1  0
 19 22  1  0
 19 20  2  0
  8  2  1  0
 18 13  1  0
M  RGP  2  21   1  22   2
V   21 *
V   22 *
M  END
>  <symbol>  (381)
Mono121

>  <m_abbr>  (381)
Mono121

>  <m_type>  (381)
aa

>  <m_subtype>  (381)
non-natural

>  <m_RgroupIdx>  (381)
20,21,None,None

>  <m_Rgroups>  (381)
H,OH,None,None

>  <m_attachmentPointIdx>  (381)
5,18,None,None

>  <natAnalog>  (381)
F

$$$$

     RDKit          2D

 21 22  0  0  0  0  0  0  0  0999 V2000
   -6.3650   -2.0727    0.0000 N   0  0  0  0  0  0  0  0  0  0  0  0
   -6.5218   -3.5645    0.0000 C   0  0  0  0  0  0  0  0  0  0  0  0
   -5.3083   -4.4462    0.0000 C   0  0  0  0  0  0  0  0  0  0  0  0
   -5.3083   -5.9462    0.0000 C   0  0  0  0  0  0  0  0  0  0  0  0
   -3.8817   -6.4097    0.0000 C   0  0  0  0  0  0  0  0  0  0  0  0
   -3.0000   -5.1962    0.0000 C   0  0  0  0  0  0  0  0  0  0  0  0
   -1.5000   -5.1962    0.0000 C   0  0  0  0  0  0  0  0  0  0  0  0
   -0.7500   -3.8971    0.0000 N   0  0  0  0  0  0  0  0  0  0  0  0
    0.7500   -3.8971    0.0000 C   0  0  0  0  0  0  0  0  0  0  0  0
    1.5000   -2.5981    0.0000 C   0  0  0  0  0  0  0  0  0  0  0  0
    0.7500   -1.2990    0.0000 C   0  0  0  0  0  0  0  0  0  0  0  0
    1.5000    0.0000    0.0000 C   0  0  0  0  0  0  0  0  0  0  0  0
    0.7500    1.2990    0.0000 C   0  0  0  0  0  0  0  0  0  0  0  0
   -0.7500    1.2990    0.0000 C   0  0  0  0  0  0  0  0  0  0  0  0
   -1.5000    0.0000    0.0000 C   0  0  0  0  0  0  0  0  0  0  0  0
   -0.7500   -1.2990    0.0000 C   0  0  0  0  0  0  0  0  0  0  0  0
    1.5000   -5.1962    0.0000 C   0  0  0  0  0  0  0  0  0  0  0  0
    3.0000   -5.1962    0.0000 O   0  0  0  0  0  0  0  0  0  0  0  0
   -3.8817   -3.9826    0.0000 O   0  0  0  0  0  0  0  0  0  0  0  0
   -7.5785   -1.1910    0.0000 R#  0  0  0  0  0  0  0  0  0  0  0  0
    0.7500   -6.4952    0.0000 R#  0  0  0  0  0  0  0  0  0  0  0  0
 20  1  1  0
  1  2  1  0
  2  3  1  0
  3  4  2  0
  4  5  1  0
  5  6  2  0
  6  7  1  0
  7  8  1  0
  8  9  1  0
  9 10  1  1
 10 11  1  0
 11 12  2  0
 12 13  1  0
 13 14  2  0
 14 15  1  0
 15 16  2  0
  9 17  1  0
 17 21  1  0
 17 18  2  0
  6 19  1  0
 19  3  1  0
 16 11  1  0
M  RGP  2  20   1  21   2
V   20 *
V   21 *
M  END
>  <symbol>  (382)
Mono122

>  <m_abbr>  (382)
Mono122

>  <m_type>  (382)
aa

>  <m_subtype>  (382)
non-natural

>  <m_RgroupIdx>  (382)
19,20,None,None

>  <m_Rgroups>  (382)
H,OH,None,None

>  <m_attachmentPointIdx>  (382)
0,16,None,None

>  <natAnalog>  (382)
F

$$$$

     RDKit          2D

 22 23  0  0  0  0  0  0  0  0999 V2000
   -1.5000   -5.1962    0.0000 C   0  0  0  0  0  0  0  0  0  0  0  0
   -0.7500   -3.8971    0.0000 N   0  0  0  0  0  0  0  0  0  0  0  0
   -1.5000   -2.5981    0.0000 C   0  0  0  0  0  0  0  0  0  0  0  0
   -3.0000   -2.5981    0.0000 C   0  0  0  0  0  0  0  0  0  0  0  0
   -3.8817   -3.8116    0.0000 C   0  0  0  0  0  0  0  0  0  0  0  0
   -5.3083   -3.3481    0.0000 C   0  0  0  0  0  0  0  0  0  0  0  0
   -5.3083   -1.8481    0.0000 C   0  0  0  0  0  0  0  0  0  0  0  0
   -6.5218   -0.9664    0.0000 C   0  0  0  0  0  0  0  0  0  0  0  0
   -6.3650    0.5254    0.0000 N   0  0  0  0  0  0  0  0  0  0  0  0
   -3.8817   -1.3846    0.0000 O   0  0  0  0  0  0  0  0  0  0  0  0
    0.7500   -3.8971    0.0000 C   0  0  0  0  0  0  0  0  0  0  0  0
    1.5000   -2.5981    0.0000 C   0  0  0  0  0  0  0  0  0  0  0  0
    0.7500   -1.2990    0.0000 C   0  0  0  0  0  0  0  0  0  0  0  0
    1.5000    0.0000    0.0000 C   0  0  0  0  0  0  0  0  0  0  0  0
    0.7500    1.2990    0.0000 C   0  0  0  0  0  0  0  0  0  0  0  0
   -0.7500    1.2990    0.0000 C   0  0  0  0  0  0  0  0  0  0  0  0
   -1.5000    0.0000    0.0000 C   0  0  0  0  0  0  0  0  0  0  0  0
   -0.7500   -1.2990    0.0000 C   0  0  0  0  0  0  0  0  0  0  0  0
    1.5000   -5.1962    0.0000 C   0  0  0  0  0  0  0  0  0  0  0  0
    3.0000   -5.1962    0.0000 O   0  0  0  0  0  0  0  0  0  0  0  0
   -7.5785    1.4071    0.0000 R#  0  0  0  0  0  0  0  0  0  0  0  0
    0.7500   -6.4952    0.0000 R#  0  0  0  0  0  0  0  0  0  0  0  0
  1  2  1  0
  2  3  1  0
  3  4  1  0
  4  5  2  0
  5  6  1  0
  6  7  2  0
  7  8  1  0
  8  9  1  0
  9 21  1  0
  7 10  1  0
  2 11  1  0
 11 12  1  1
 12 13  1  0
 13 14  2  0
 14 15  1  0
 15 16  2  0
 16 17  1  0
 17 18  2  0
 11 19  1  0
 19 22  1  0
 19 20  2  0
 10  4  1  0
 18 13  1  0
M  RGP  2  21   1  22   2
V   21 *
V   22 *
M  END
>  <symbol>  (383)
Mono123

>  <m_abbr>  (383)
Mono123

>  <m_type>  (383)
aa

>  <m_subtype>  (383)
non-natural

>  <m_RgroupIdx>  (383)
20,21,None,None

>  <m_Rgroups>  (383)
H,OH,None,None

>  <m_attachmentPointIdx>  (383)
8,18,None,None

>  <natAnalog>  (383)
F

$$$$

     RDKit          2D

 22 23  0  0  0  0  0  0  0  0999 V2000
   -4.9947   -1.4626    0.0000 C   0  0  0  0  0  0  0  0  0  0  0  0
   -6.3650   -2.0727    0.0000 N   0  0  0  0  0  0  0  0  0  0  0  0
   -6.5218   -3.5645    0.0000 C   0  0  0  0  0  0  0  0  0  0  0  0
   -5.3083   -4.4462    0.0000 C   0  0  0  0  0  0  0  0  0  0  0  0
   -5.3083   -5.9462    0.0000 C   0  0  0  0  0  0  0  0  0  0  0  0
   -3.8817   -6.4097    0.0000 C   0  0  0  0  0  0  0  0  0  0  0  0
   -3.0000   -5.1962    0.0000 C   0  0  0  0  0  0  0  0  0  0  0  0
   -1.5000   -5.1962    0.0000 C   0  0  0  0  0  0  0  0  0  0  0  0
   -0.7500   -3.8971    0.0000 N   0  0  0  0  0  0  0  0  0  0  0  0
    0.7500   -3.8971    0.0000 C   0  0  0  0  0  0  0  0  0  0  0  0
    1.5000   -2.5981    0.0000 C   0  0  0  0  0  0  0  0  0  0  0  0
    0.7500   -1.2990    0.0000 C   0  0  0  0  0  0  0  0  0  0  0  0
    1.5000    0.0000    0.0000 C   0  0  0  0  0  0  0  0  0  0  0  0
    0.7500    1.2990    0.0000 C   0  0  0  0  0  0  0  0  0  0  0  0
   -0.7500    1.2990    0.0000 C   0  0  0  0  0  0  0  0  0  0  0  0
   -1.5000    0.0000    0.0000 C   0  0  0  0  0  0  0  0  0  0  0  0
   -0.7500   -1.2990    0.0000 C   0  0  0  0  0  0  0  0  0  0  0  0
    1.5000   -5.1962    0.0000 C   0  0  0  0  0  0  0  0  0  0  0  0
    3.0000   -5.1962    0.0000 O   0  0  0  0  0  0  0  0  0  0  0  0
   -3.8817   -3.9826    0.0000 O   0  0  0  0  0  0  0  0  0  0  0  0
   -7.5785   -1.1910    0.0000 R#  0  0  0  0  0  0  0  0  0  0  0  0
    0.7500   -6.4952    0.0000 R#  0  0  0  0  0  0  0  0  0  0  0  0
  1  2  1  0
  2 21  1  0
  2  3  1  0
  3  4  1  0
  4  5  2  0
  5  6  1  0
  6  7  2  0
  7  8  1  0
  8  9  1  0
  9 10  1  0
 10 11  1  1
 11 12  1  0
 12 13  2  0
 13 14  1  0
 14 15  2  0
 15 16  1  0
 16 17  2  0
 10 18  1  0
 18 22  1  0
 18 19  2  0
  7 20  1  0
 20  4  1  0
 17 12  1  0
M  RGP  2  21   1  22   2
V   21 *
V   22 *
M  END
>  <symbol>  (384)
Mono124

>  <m_abbr>  (384)
Mono124

>  <m_type>  (384)
aa

>  <m_subtype>  (384)
non-natural

>  <m_RgroupIdx>  (384)
20,21,None,None

>  <m_Rgroups>  (384)
H,OH,None,None

>  <m_attachmentPointIdx>  (384)
1,17,None,None

>  <natAnalog>  (384)
F

$$$$

     RDKit          2D

 23 24  0  0  0  0  0  0  0  0999 V2000
   -4.9947    1.1355    0.0000 C   0  0  0  0  0  0  0  0  0  0  0  0
   -6.3650    0.5254    0.0000 N   0  0  0  0  0  0  0  0  0  0  0  0
   -6.5218   -0.9664    0.0000 C   0  0  0  0  0  0  0  0  0  0  0  0
   -5.3083   -1.8481    0.0000 C   0  0  0  0  0  0  0  0  0  0  0  0
   -5.3083   -3.3481    0.0000 C   0  0  0  0  0  0  0  0  0  0  0  0
   -3.8817   -3.8116    0.0000 C   0  0  0  0  0  0  0  0  0  0  0  0
   -3.0000   -2.5981    0.0000 C   0  0  0  0  0  0  0  0  0  0  0  0
   -1.5000   -2.5981    0.0000 C   0  0  0  0  0  0  0  0  0  0  0  0
   -0.7500   -3.8971    0.0000 N   0  0  0  0  0  0  0  0  0  0  0  0
   -1.5000   -5.1962    0.0000 C   0  0  0  0  0  0  0  0  0  0  0  0
    0.7500   -3.8971    0.0000 C   0  0  0  0  0  0  0  0  0  0  0  0
    1.5000   -2.5981    0.0000 C   0  0  0  0  0  0  0  0  0  0  0  0
    0.7500   -1.2990    0.0000 C   0  0  0  0  0  0  0  0  0  0  0  0
    1.5000    0.0000    0.0000 C   0  0  0  0  0  0  0  0  0  0  0  0
    0.7500    1.2990    0.0000 C   0  0  0  0  0  0  0  0  0  0  0  0
   -0.7500    1.2990    0.0000 C   0  0  0  0  0  0  0  0  0  0  0  0
   -1.5000    0.0000    0.0000 C   0  0  0  0  0  0  0  0  0  0  0  0
   -0.7500   -1.2990    0.0000 C   0  0  0  0  0  0  0  0  0  0  0  0
    1.5000   -5.1962    0.0000 C   0  0  0  0  0  0  0  0  0  0  0  0
    3.0000   -5.1962    0.0000 O   0  0  0  0  0  0  0  0  0  0  0  0
   -3.8817   -1.3846    0.0000 O   0  0  0  0  0  0  0  0  0  0  0  0
   -7.5785    1.4071    0.0000 R#  0  0  0  0  0  0  0  0  0  0  0  0
    0.7500   -6.4952    0.0000 R#  0  0  0  0  0  0  0  0  0  0  0  0
  1  2  1  0
  2 22  1  0
  2  3  1  0
  3  4  1  0
  4  5  2  0
  5  6  1  0
  6  7  2  0
  7  8  1  0
  8  9  1  0
  9 10  1  0
  9 11  1  0
 11 12  1  1
 12 13  1  0
 13 14  2  0
 14 15  1  0
 15 16  2  0
 16 17  1  0
 17 18  2  0
 11 19  1  0
 19 23  1  0
 19 20  2  0
  7 21  1  0
 21  4  1  0
 18 13  1  0
M  RGP  2  22   1  23   2
V   22 *
V   23 *
M  END
>  <symbol>  (385)
Mono125

>  <m_abbr>  (385)
Mono125

>  <m_type>  (385)
aa

>  <m_subtype>  (385)
non-natural

>  <m_RgroupIdx>  (385)
21,22,None,None

>  <m_Rgroups>  (385)
H,OH,None,None

>  <m_attachmentPointIdx>  (385)
1,18,None,None

>  <natAnalog>  (385)
F

$$$$

     RDKit          2D

 31 33  0  0  0  0  0  0  0  0999 V2000
    3.7500   -1.2990    0.0000 N   0  0  0  0  0  0  0  0  0  0  0  0
    3.0000    0.0000    0.0000 C   0  0  0  0  0  0  0  0  0  0  0  0
    1.5000    0.0000    0.0000 C   0  0  0  0  0  0  0  0  0  0  0  0
    0.7500   -1.2990    0.0000 C   0  0  0  0  0  0  0  0  0  0  0  0
   -0.7500   -1.2990    0.0000 C   0  0  0  0  0  0  0  0  0  0  0  0
   -1.5000    0.0000    0.0000 C   0  0  0  0  0  0  0  0  0  0  0  0
   -0.7500    1.2990    0.0000 C   0  0  0  0  0  0  0  0  0  0  0  0
   -1.5000    2.5981    0.0000 N   0  0  0  0  0  0  0  0  0  0  0  0
   -0.7500    3.8971    0.0000 C   0  0  0  0  0  0  0  0  0  0  0  0
    0.7500    3.8971    0.0000 C   0  0  0  0  0  0  0  0  0  0  0  0
    1.5000    2.5981    0.0000 C   0  0  0  0  0  0  0  0  0  0  0  0
    3.0000    2.5981    0.0000 C   0  0  0  0  0  0  0  0  0  0  0  0
    3.7500    3.8971    0.0000 C   0  0  0  0  0  0  0  0  0  0  0  0
    3.0000    5.1962    0.0000 C   0  0  0  0  0  0  0  0  0  0  0  0
    1.5000    5.1962    0.0000 C   0  0  0  0  0  0  0  0  0  0  0  0
    0.7500    6.4952    0.0000 N   0  0  0  0  0  0  0  0  0  0  0  0
   -0.7500    6.4952    0.0000 O   0  0  0  0  0  0  0  0  0  0  0  0
    1.5000    7.7942    0.0000 O   0  0  0  0  0  0  0  0  0  0  0  0
   -3.0000    2.5981    0.0000 C   0  0  0  0  0  0  0  0  0  0  0  0
   -3.7500    1.2990    0.0000 O   0  0  0  0  0  0  0  0  0  0  0  0
   -3.7500    3.8971    0.0000 C   0  0  0  0  0  0  0  0  0  0  0  0
   -3.0000    5.1962    0.0000 C   0  0  0  0  0  0  0  0  0  0  0  0
   -3.7500    6.4952    0.0000 C   0  0  0  0  0  0  0  0  0  0  0  0
   -5.2500    6.4952    0.0000 C   0  0  0  0  0  0  0  0  0  0  0  0
   -6.0000    5.1962    0.0000 C   0  0  0  0  0  0  0  0  0  0  0  0
   -7.5000    5.1962    0.0000 C   0  0  0  0  0  0  0  0  0  0  0  0
   -8.2500    3.8971    0.0000 O   0  0  0  0  0  0  0  0  0  0  0  0
   -5.2500    3.8971    0.0000 C   0  0  0  0  0  0  0  0  0  0  0  0
    0.7500    1.2990    0.0000 C   0  0  0  0  0  0  0  0  0  0  0  0
    5.2500   -1.2990    0.0000 R#  0  0  0  0  0  0  0  0  0  0  0  0
   -8.2500    6.4952    0.0000 R#  0  0  0  0  0  0  0  0  0  0  0  0
 30  1  1  0
  1  2  1  0
  2  3  1  0
  3  4  2  0
  4  5  1  0
  5  6  2  0
  6  7  1  0
  7  8  1  0
  8  9  1  0
  9 10  1  0
 10 11  2  0
 11 12  1  0
 12 13  2  0
 13 14  1  0
 14 15  2  0
 15 16  1  0
 16 17  2  0
 16 18  1  0
  8 19  1  0
 19 20  2  0
 19 21  1  0
 21 22  2  0
 22 23  1  0
 23 24  2  0
 24 25  1  0
 25 26  1  0
 26 31  1  0
 26 27  2  0
 25 28  2  0
  7 29  2  0
 29  3  1  0
 15 10  1  0
 28 21  1  0
M  CHG  2  16   1  18  -1
M  RGP  2  30   1  31   2
V   30 *
V   31 *
M  END
>  <symbol>  (386)
Mono126

>  <m_abbr>  (386)
Mono126

>  <m_type>  (386)
aa

>  <m_subtype>  (386)
non-natural

>  <m_RgroupIdx>  (386)
29,30,None,None

>  <m_Rgroups>  (386)
H,OH,None,None

>  <m_attachmentPointIdx>  (386)
0,25,None,None

>  <natAnalog>  (386)
X

$$$$

     RDKit          2D

 21 22  0  0  0  0  0  0  0  0999 V2000
    3.7500   -1.2990    0.0000 N   0  0  0  0  0  0  0  0  0  0  0  0
    3.0000    0.0000    0.0000 C   0  0  0  0  0  0  0  0  0  0  0  0
    1.5000    0.0000    0.0000 C   0  0  0  0  0  0  0  0  0  0  0  0
    0.7500   -1.2990    0.0000 C   0  0  0  0  0  0  0  0  0  0  0  0
   -0.7500   -1.2990    0.0000 C   0  0  0  0  0  0  0  0  0  0  0  0
   -1.5000    0.0000    0.0000 C   0  0  0  0  0  0  0  0  0  0  0  0
   -0.7500    1.2990    0.0000 C   0  0  0  0  0  0  0  0  0  0  0  0
   -1.5000    2.5981    0.0000 N   0  0  0  0  0  0  0  0  0  0  0  0
   -0.7500    3.8971    0.0000 C   0  0  0  0  0  0  0  0  0  0  0  0
    0.7500    3.8971    0.0000 O   0  0  0  0  0  0  0  0  0  0  0  0
   -1.5000    5.1962    0.0000 C   0  0  0  0  0  0  0  0  0  0  0  0
   -0.7500    6.4952    0.0000 C   0  0  0  0  0  0  0  0  0  0  0  0
   -1.5000    7.7942    0.0000 C   0  0  0  0  0  0  0  0  0  0  0  0
   -3.0000    7.7942    0.0000 C   0  0  0  0  0  0  0  0  0  0  0  0
   -3.7500    6.4952    0.0000 C   0  0  0  0  0  0  0  0  0  0  0  0
   -5.2500    6.4952    0.0000 C   0  0  0  0  0  0  0  0  0  0  0  0
   -6.0000    5.1962    0.0000 O   0  0  0  0  0  0  0  0  0  0  0  0
   -3.0000    5.1962    0.0000 C   0  0  0  0  0  0  0  0  0  0  0  0
    0.7500    1.2990    0.0000 C   0  0  0  0  0  0  0  0  0  0  0  0
    5.2500   -1.2990    0.0000 R#  0  0  0  0  0  0  0  0  0  0  0  0
   -6.0000    7.7942    0.0000 R#  0  0  0  0  0  0  0  0  0  0  0  0
 20  1  1  0
  1  2  1  0
  2  3  1  0
  3  4  2  0
  4  5  1  0
  5  6  2  0
  6  7  1  0
  7  8  1  0
  8  9  1  0
  9 10  2  0
  9 11  1  0
 11 12  2  0
 12 13  1  0
 13 14  2  0
 14 15  1  0
 15 16  1  0
 16 21  1  0
 16 17  2  0
 15 18  2  0
  7 19  2  0
 19  3  1  0
 18 11  1  0
M  RGP  2  20   1  21   2
V   20 *
V   21 *
M  END
>  <symbol>  (387)
Mono127

>  <m_abbr>  (387)
Mono127

>  <m_type>  (387)
aa

>  <m_subtype>  (387)
non-natural

>  <m_RgroupIdx>  (387)
19,20,None,None

>  <m_Rgroups>  (387)
H,OH,None,None

>  <m_attachmentPointIdx>  (387)
0,15,None,None

>  <natAnalog>  (387)
X

$$$$

     RDKit          2D

  9  8  0  0  0  0  0  0  0  0999 V2000
    1.9520   -1.9520    0.0000 N   0  0  0  0  0  0  0  0  0  0  0  0
    1.9520   -1.1270    0.0000 C   0  0  0  0  0  0  0  0  0  0  0  0
    1.2375   -0.7145    0.0000 C   0  0  0  0  0  0  0  0  0  0  0  0
    1.2375    0.1105    0.0000 S   0  0  0  0  0  0  0  0  0  0  0  0
    2.6664   -0.7145    0.0000 C   0  0  0  0  0  0  0  0  0  0  0  0
    3.3809   -1.1270    0.0000 O   0  0  0  0  0  0  0  0  0  0  0  0
    2.6664   -2.3645    0.0000 R#  0  0  0  0  0  0  0  0  0  0  0  0
    0.5230    0.5230    0.0000 R#  0  0  0  0  0  0  0  0  0  0  0  0
    2.6664    0.1105    0.0000 R#  0  0  0  0  0  0  0  0  0  0  0  0
  7  1  1  0
  2  1  1  0
  2  3  1  1
  3  4  1  0
  4  8  1  0
  2  5  1  0
  5  9  1  0
  5  6  2  0
M  RGP  3   7   1   8   3   9   2
V    7 *
V    8 *
V    9 *
M  END
>  <m_name>  (388)
Cysteine

>  <symbol>  (388)
C

>  <m_abbr>  (388)
C

>  <m_type>  (388)
aa

>  <m_subtype>  (388)
natural

>  <m_Rgroups>  (388)
H,OH,H,None

>  <m_RgroupIdx>  (388)
6,8,7,None

>  <m_attachmentPointIdx>  (388)
0,4,3,None

>  <natAnalog>  (388)
C

>  <pdbName>  (388)
CYS

$$$$

     RDKit          2D

  9  8  0  0  0  0  0  0  0  0999 V2000
    1.9520   -1.9520    0.0000 N   0  0  0  0  0  0  0  0  0  0  0  0
    1.9520   -1.1270    0.0000 C   0  0  0  0  0  0  0  0  0  0  0  0
    1.2375   -0.7145    0.0000 C   0  0  0  0  0  0  0  0  0  0  0  0
    1.2375    0.1105    0.0000 S   0  0  0  0  0  0  0  0  0  0  0  0
    2.6664   -0.7145    0.0000 C   0  0  0  0  0  0  0  0  0  0  0  0
    3.3809   -1.1270    0.0000 O   0  0  0  0  0  0  0  0  0  0  0  0
    2.6664   -2.3645    0.0000 R#  0  0  0  0  0  0  0  0  0  0  0  0
    0.5230    0.5230    0.0000 R#  0  0  0  0  0  0  0  0  0  0  0  0
    2.6664    0.1105    0.0000 R#  0  0  0  0  0  0  0  0  0  0  0  0
  7  1  1  0
  2  1  1  0
  2  3  1  6
  3  4  1  0
  4  8  1  0
  2  5  1  0
  5  9  1  0
  5  6  2  0
M  RGP  3   7   1   8   3   9   2
V    7 *
V    8 *
V    9 *
M  END
>  <m_name>  (389)
D-Cysteine

>  <symbol>  (389)
dC

>  <m_abbr>  (389)
dC

>  <m_type>  (389)
aa

>  <m_subtype>  (389)
non-natural

>  <m_Rgroups>  (389)
H,OH,H,None

>  <m_RgroupIdx>  (389)
6,8,7,None

>  <m_attachmentPointIdx>  (389)
0,4,3,None

>  <natAnalog>  (389)
C

>  <pdbName>  (389)
DC6

$$$$

     RDKit          2D

 10  9  0  0  0  0  0  0  0  0999 V2000
    1.9520   -1.9520    0.0000 N   0  0  0  0  0  0  0  0  0  0  0  0
    1.9520   -1.1270    0.0000 C   0  0  0  0  0  0  0  0  0  0  0  0
    1.2375   -0.7145    0.0000 C   0  0  0  0  0  0  0  0  0  0  0  0
    1.2375    0.1105    0.0000 C   0  0  0  0  0  0  0  0  0  0  0  0
    1.9520    0.5230    0.0000 O   0  0  0  0  0  0  0  0  0  0  0  0
    2.6664   -0.7145    0.0000 C   0  0  0  0  0  0  0  0  0  0  0  0
    3.3809   -1.1270    0.0000 O   0  0  0  0  0  0  0  0  0  0  0  0
    2.6664   -2.3645    0.0000 R#  0  0  0  0  0  0  0  0  0  0  0  0
    0.5230    0.5230    0.0000 R#  0  0  0  0  0  0  0  0  0  0  0  0
    2.6664    0.1105    0.0000 R#  0  0  0  0  0  0  0  0  0  0  0  0
  8  1  1  0
  2  1  1  0
  2  3  1  6
  3  4  1  0
  4  9  1  0
  4  5  2  0
  2  6  1  0
  6 10  1  0
  6  7  2  0
M  RGP  3   8   1   9   3  10   2
V    8 *
V    9 *
V   10 *
M  END
>  <m_name>  (390)
D-Aspartic acid

>  <symbol>  (390)
dD

>  <m_abbr>  (390)
dD

>  <m_type>  (390)
aa

>  <m_subtype>  (390)
non-natural

>  <m_Rgroups>  (390)
H,OH,OH,None

>  <m_RgroupIdx>  (390)
7,9,8,None

>  <m_attachmentPointIdx>  (390)
0,5,3,None

>  <natAnalog>  (390)
D

>  <pdbName>  (390)
DD0

$$$$

     RDKit          2D

 11 10  0  0  0  0  0  0  0  0999 V2000
    3.7125    3.5724    0.0000 N   0  0  0  0  0  0  0  0  0  0  0  0
    3.3000    2.8579    0.0000 C   0  0  0  0  0  0  0  0  0  0  0  0
    2.4750    2.8579    0.0000 C   0  0  0  0  0  0  0  0  0  0  0  0
    2.0625    2.1434    0.0000 C   0  0  0  0  0  0  0  0  0  0  0  0
    1.2375    2.1434    0.0000 C   0  0  0  0  0  0  0  0  0  0  0  0
    0.8250    2.8579    0.0000 O   0  0  0  0  0  0  0  0  0  0  0  0
    3.7125    2.1434    0.0000 C   0  0  0  0  0  0  0  0  0  0  0  0
    3.3000    1.4289    0.0000 O   0  0  0  0  0  0  0  0  0  0  0  0
    4.5375    3.5724    0.0000 R#  0  0  0  0  0  0  0  0  0  0  0  0
    0.8250    1.4289    0.0000 R#  0  0  0  0  0  0  0  0  0  0  0  0
    4.5375    2.1434    0.0000 R#  0  0  0  0  0  0  0  0  0  0  0  0
  9  1  1  0
  2  1  1  0
  2  3  1  1
  3  4  1  0
  4  5  1  0
  5 10  1  0
  5  6  2  0
  2  7  1  0
  7 11  1  0
  7  8  2  0
M  RGP  3   9   1  10   3  11   2
V    9 *
V   10 *
V   11 *
M  END
>  <m_name>  (391)
D-Glutamic acid

>  <symbol>  (391)
dE

>  <m_abbr>  (391)
dE

>  <m_type>  (391)
aa

>  <m_subtype>  (391)
non-natural

>  <m_Rgroups>  (391)
H,OH,OH,None

>  <m_RgroupIdx>  (391)
8,10,9,None

>  <m_attachmentPointIdx>  (391)
0,6,4,None

>  <natAnalog>  (391)
E

>  <pdbName>  (391)
DEK

$$$$

     RDKit          2D

 12 12  0  0  0  0  0  0  0  0999 V2000
   -0.1467    3.1768    0.0000 N   0  0  0  0  0  0  0  0  0  0  0  0
   -0.1467    2.3518    0.0000 C   0  0  0  0  0  0  0  0  0  0  0  0
    0.5678    1.9393    0.0000 C   0  0  0  0  0  0  0  0  0  0  0  0
    0.5678    1.1143    0.0000 C   0  0  0  0  0  0  0  0  0  0  0  0
    1.2352    0.6294    0.0000 C   0  0  0  0  0  0  0  0  0  0  0  0
    0.9803   -0.1553    0.0000 N   0  0  0  0  0  0  0  0  0  0  0  0
    0.1553   -0.1553    0.0000 C   0  0  0  0  0  0  0  0  0  0  0  0
   -0.0997    0.6294    0.0000 N   0  0  0  0  0  0  0  0  0  0  0  0
   -0.8612    1.9393    0.0000 C   0  0  0  0  0  0  0  0  0  0  0  0
   -1.5757    2.3518    0.0000 O   0  0  0  0  0  0  0  0  0  0  0  0
   -0.8612    3.5893    0.0000 R#  0  0  0  0  0  0  0  0  0  0  0  0
   -0.8612    1.1143    0.0000 R#  0  0  0  0  0  0  0  0  0  0  0  0
 11  1  1  0
  2  1  1  0
  2  3  1  6
  3  4  1  0
  4  5  2  0
  5  6  1  0
  6  7  1  0
  7  8  2  0
  4  8  1  0
  2  9  1  0
  9 12  1  0
  9 10  2  0
M  RGP  2  11   1  12   2
V   11 *
V   12 *
M  END
>  <m_name>  (392)
D-Histidine

>  <symbol>  (392)
dH

>  <m_abbr>  (392)
dH

>  <m_type>  (392)
aa

>  <m_subtype>  (392)
non-natural

>  <m_Rgroups>  (392)
H,OH,None,None

>  <m_RgroupIdx>  (392)
10,11,None,None

>  <m_attachmentPointIdx>  (392)
0,8,None,None

>  <natAnalog>  (392)
H

>  <pdbName>  (392)
DHW

$$$$

     RDKit          2D

 10  9  0  0  0  0  0  0  0  0999 V2000
    0.8250   -1.4289    0.0000 C   0  0  0  0  0  0  0  0  0  0  0  0
    1.2375   -2.1434    0.0000 S   0  0  0  0  0  0  0  0  0  0  0  0
    2.0625   -2.1434    0.0000 C   0  0  0  0  0  0  0  0  0  0  0  0
    2.4750   -2.8579    0.0000 C   0  0  0  0  0  0  0  0  0  0  0  0
    3.3000   -2.8579    0.0000 C   0  0  0  0  0  0  0  0  0  0  0  0
    3.7125   -3.5724    0.0000 N   0  0  0  0  0  0  0  0  0  0  0  0
    3.7125   -2.1434    0.0000 C   0  0  0  0  0  0  0  0  0  0  0  0
    4.5375   -2.1434    0.0000 O   0  0  0  0  0  0  0  0  0  0  0  0
    4.5375   -3.5724    0.0000 R#  0  0  0  0  0  0  0  0  0  0  0  0
    3.3000   -1.4289    0.0000 R#  0  0  0  0  0  0  0  0  0  0  0  0
  1  2  1  0
  2  3  1  0
  3  4  1  0
  5  4  1  6
  5  6  1  0
  6  9  1  0
  5  7  1  0
  7 10  1  0
  7  8  2  0
M  RGP  2   9   1  10   2
V    9 *
V   10 *
M  END
>  <m_name>  (393)
D-Methionine

>  <symbol>  (393)
dM

>  <m_abbr>  (393)
dM

>  <m_type>  (393)
aa

>  <m_subtype>  (393)
non-natural

>  <m_Rgroups>  (393)
H,OH,None,None

>  <m_RgroupIdx>  (393)
8,9,None,None

>  <m_attachmentPointIdx>  (393)
5,6,None,None

>  <natAnalog>  (393)
M

>  <pdbName>  (393)
DB2

$$$$

     RDKit          2D

 11 10  0  0  0  0  0  0  0  0999 V2000
    0.8250   -1.4289    0.0000 N   0  0  0  0  0  0  0  0  0  0  0  0
    1.2375   -2.1434    0.0000 C   0  0  0  0  0  0  0  0  0  0  0  0
    0.8250   -2.8579    0.0000 O   0  0  0  0  0  0  0  0  0  0  0  0
    2.0625   -2.1434    0.0000 C   0  0  0  0  0  0  0  0  0  0  0  0
    2.4750   -2.8579    0.0000 C   0  0  0  0  0  0  0  0  0  0  0  0
    3.3000   -2.8579    0.0000 C   0  0  0  0  0  0  0  0  0  0  0  0
    3.7125   -3.5724    0.0000 N   0  0  0  0  0  0  0  0  0  0  0  0
    3.7125   -2.1434    0.0000 C   0  0  0  0  0  0  0  0  0  0  0  0
    4.5375   -2.1434    0.0000 O   0  0  0  0  0  0  0  0  0  0  0  0
    4.5375   -3.5724    0.0000 R#  0  0  0  0  0  0  0  0  0  0  0  0
    3.3000   -1.4289    0.0000 R#  0  0  0  0  0  0  0  0  0  0  0  0
  1  2  1  0
  2  3  2  0
  2  4  1  0
  4  5  1  0
  6  5  1  6
  6  7  1  0
  7 10  1  0
  6  8  1  0
  8 11  1  0
  8  9  2  0
M  RGP  2  10   1  11   2
V   10 *
V   11 *
M  END
>  <m_name>  (394)
D-Glutamine

>  <symbol>  (394)
dQ

>  <m_abbr>  (394)
dQ

>  <m_type>  (394)
aa

>  <m_subtype>  (394)
non-natural

>  <m_Rgroups>  (394)
H,OH,None,None

>  <m_RgroupIdx>  (394)
9,10,None,None

>  <m_attachmentPointIdx>  (394)
6,7,None,None

>  <natAnalog>  (394)
Q

>  <pdbName>  (394)
DQC

$$$$

     RDKit          2D

  4  3  0  0  0  0  0  0  0  0999 V2000
    1.2375    0.7145    0.0000 C   0  0  0  0  0  0  0  0  0  0  0  0
    0.8250    0.0000    0.0000 C   0  0  0  0  0  0  0  0  0  0  0  0
    0.0000    0.0000    0.0000 O   0  0  0  0  0  0  0  0  0  0  0  0
    1.2375   -0.7145    0.0000 R#  0  0  0  0  0  0  0  0  0  0  0  0
  1  2  1  0
  2  4  1  0
  2  3  2  0
M  RGP  1   4   2
V    4 *
M  END
>  <m_name>  (395)
N-Terminal acetic acid

>  <symbol>  (395)
ac

>  <m_abbr>  (395)
ac

>  <m_type>  (395)
aa

>  <m_subtype>  (395)
aa

>  <m_Rgroups>  (395)
None,OH,None,None

>  <m_RgroupIdx>  (395)
None,3,None,None

>  <m_attachmentPointIdx>  (395)
None,1,None,None

>  <natAnalog>  (395)
X

>  <pdbName>  (395)
ACE

$$$$

     RDKit          2D

  2  1  0  0  0  0  0  0  0  0999 V2000
    0.8250    0.0000    0.0000 N   0  0  0  0  0  0  0  0  0  0  0  0
    0.0000    0.0000    0.0000 R#  0  0  0  0  0  0  0  0  0  0  0  0
  1  2  1  0
M  RGP  1   2   1
V    2 *
M  END
>  <m_name>  (396)
C-Terminal amine

>  <symbol>  (396)
am

>  <m_abbr>  (396)
am

>  <m_type>  (396)
aa

>  <m_subtype>  (396)
aa

>  <m_Rgroups>  (396)
H,None,None,None

>  <m_RgroupIdx>  (396)
1,None,None,None

>  <m_attachmentPointIdx>  (396)
0,None,None,None

>  <natAnalog>  (396)
X

>  <pdbName>  (396)
NH2

$$$$

     RDKit          2D

  2  1  0  0  0  0  0  0  0  0999 V2000
    0.8250    0.0000    0.0000 C   0  0  0  0  0  0  0  0  0  0  0  0
    0.0000    0.0000    0.0000 R#  0  0  0  0  0  0  0  0  0  0  0  0
  1  2  1  0
M  RGP  1   2   1
V    2 *
M  END
>  <m_name>  (397)
C-Terminal methyl

>  <symbol>  (397)
_Me

>  <m_abbr>  (397)
_Me

>  <m_type>  (397)
aa

>  <m_subtype>  (397)
aa

>  <m_Rgroups>  (397)
H,None,None,None

>  <m_RgroupIdx>  (397)
1,None,None,None

>  <m_attachmentPointIdx>  (397)
0,None,None,None

>  <natAnalog>  (397)
X

>  <pdbName>  (397)
MEH

$$$$

     RDKit          2D

 12 11  0  0  0  0  0  0  0  0999 V2000
    4.5375    3.5724    0.0000 C   0  0  0  0  0  0  0  0  0  0  0  0
    3.7125    3.5724    0.0000 N   0  0  0  0  0  0  0  0  0  0  0  0
    3.3000    2.8579    0.0000 C   0  0  0  0  0  0  0  0  0  0  0  0
    2.4750    2.8579    0.0000 C   0  0  0  0  0  0  0  0  0  0  0  0
    2.0625    2.1434    0.0000 C   0  0  0  0  0  0  0  0  0  0  0  0
    1.2375    2.1434    0.0000 C   0  0  0  0  0  0  0  0  0  0  0  0
    0.8250    2.8579    0.0000 O   0  0  0  0  0  0  0  0  0  0  0  0
    3.7125    2.1434    0.0000 C   0  0  0  0  0  0  0  0  0  0  0  0
    3.3000    1.4289    0.0000 O   0  0  0  0  0  0  0  0  0  0  0  0
    3.3000    4.2868    0.0000 R#  0  0  0  0  0  0  0  0  0  0  0  0
    0.8250    1.4289    0.0000 R#  0  0  0  0  0  0  0  0  0  0  0  0
    4.5375    2.1434    0.0000 R#  0  0  0  0  0  0  0  0  0  0  0  0
  1  2  1  0
  2 10  1  0
  3  2  1  0
  3  4  1  6
  4  5  1  0
  5  6  1  0
  6 11  1  0
  6  7  2  0
  3  8  1  0
  8 12  1  0
  8  9  2  0
M  RGP  3  10   1  11   3  12   2
V   10 *
V   11 *
V   12 *
M  END
>  <m_name>  (398)
N-Methyl-Glutamic acid

>  <symbol>  (398)
meE

>  <m_abbr>  (398)
meE

>  <m_type>  (398)
aa

>  <m_subtype>  (398)
non-natural

>  <m_Rgroups>  (398)
H,OH,OH,None

>  <m_RgroupIdx>  (398)
9,11,10,None

>  <m_attachmentPointIdx>  (398)
1,7,5,None

>  <natAnalog>  (398)
E

>  <pdbName>  (398)
MDI

$$$$

     RDKit          2D

  7  6  0  0  0  0  0  0  0  0999 V2000
    1.2375    2.1434    0.0000 C   0  0  0  0  0  0  0  0  0  0  0  0
    0.8250    1.4289    0.0000 N   0  0  0  0  0  0  0  0  0  0  0  0
    1.2375    0.7145    0.0000 C   0  0  0  0  0  0  0  0  0  0  0  0
    0.8250    0.0000    0.0000 C   0  0  0  0  0  0  0  0  0  0  0  0
    0.0000    0.0000    0.0000 O   0  0  0  0  0  0  0  0  0  0  0  0
    0.0000    1.4289    0.0000 R#  0  0  0  0  0  0  0  0  0  0  0  0
    1.2375   -0.7145    0.0000 R#  0  0  0  0  0  0  0  0  0  0  0  0
  1  2  1  0
  2  6  1  0
  2  3  1  0
  3  4  1  0
  4  7  1  0
  4  5  2  0
M  RGP  2   6   1   7   2
V    6 *
V    7 *
M  END
>  <m_name>  (399)
Sarcosine (N-Methyl-Glycine)

>  <symbol>  (399)
meG

>  <m_abbr>  (399)
meG

>  <m_type>  (399)
aa

>  <m_subtype>  (399)
non-natural

>  <m_Rgroups>  (399)
H,OH,None,None

>  <m_RgroupIdx>  (399)
5,6,None,None

>  <m_attachmentPointIdx>  (399)
1,3,None,None

>  <natAnalog>  (399)
G

>  <pdbName>  (399)
MDM

$$$$

     RDKit          2D

 10  9  0  0  0  0  0  0  0  0999 V2000
    2.6664   -2.3645    0.0000 C   0  0  0  0  0  0  0  0  0  0  0  0
    1.9520   -1.9520    0.0000 N   0  0  0  0  0  0  0  0  0  0  0  0
    1.9520   -1.1270    0.0000 C   0  0  0  0  0  0  0  0  0  0  0  0
    1.2375   -0.7145    0.0000 C   0  0  0  0  0  0  0  0  0  0  0  0
    1.2375    0.1105    0.0000 S   0  0  0  0  0  0  0  0  0  0  0  0
    2.6664   -0.7145    0.0000 C   0  0  0  0  0  0  0  0  0  0  0  0
    3.3809   -1.1270    0.0000 O   0  0  0  0  0  0  0  0  0  0  0  0
    1.2375   -2.3645    0.0000 R#  0  0  0  0  0  0  0  0  0  0  0  0
    0.5230    0.5230    0.0000 R#  0  0  0  0  0  0  0  0  0  0  0  0
    2.6664    0.1105    0.0000 R#  0  0  0  0  0  0  0  0  0  0  0  0
  1  2  1  0
  2  8  1  0
  3  2  1  0
  3  4  1  1
  4  5  1  0
  5  9  1  0
  3  6  1  0
  6 10  1  0
  6  7  2  0
M  RGP  3   8   1   9   3  10   2
V    8 *
V    9 *
V   10 *
M  END
>  <m_name>  (400)
N-Methyl-Cysteine

>  <symbol>  (400)
meC

>  <m_abbr>  (400)
meC

>  <m_type>  (400)
aa

>  <m_subtype>  (400)
non-natural

>  <m_Rgroups>  (400)
H,OH,H,None

>  <m_RgroupIdx>  (400)
7,9,8,None

>  <m_attachmentPointIdx>  (400)
1,5,4,None

>  <natAnalog>  (400)
C

>  <pdbName>  (400)
MF0

$$$$

     RDKit          2D

 14 13  0  0  0  0  0  0  0  0999 V2000
    6.0983    4.8196    0.0000 C   0  0  0  0  0  0  0  0  0  0  0  0
    5.2882    4.9755    0.0000 N   0  0  0  0  0  0  0  0  0  0  0  0
    4.7481    4.3519    0.0000 C   0  0  0  0  0  0  0  0  0  0  0  0
    3.9379    4.5078    0.0000 C   0  0  0  0  0  0  0  0  0  0  0  0
    3.3979    3.8842    0.0000 C   0  0  0  0  0  0  0  0  0  0  0  0
    2.5877    4.0401    0.0000 C   0  0  0  0  0  0  0  0  0  0  0  0
    2.0476    3.4164    0.0000 N   0  0  0  0  0  0  0  0  0  0  0  0
    1.2375    3.5724    0.0000 C   0  0  0  0  0  0  0  0  0  0  0  0
    0.6974    2.9487    0.0000 N   0  0  0  0  0  0  0  0  0  0  0  0
    0.9675    4.3519    0.0000 N   0  0  0  0  0  0  0  0  0  0  0  0
    5.0181    3.5724    0.0000 C   0  0  0  0  0  0  0  0  0  0  0  0
    4.4780    2.9487    0.0000 O   0  0  0  0  0  0  0  0  0  0  0  0
    5.0181    5.7551    0.0000 R#  0  0  0  0  0  0  0  0  0  0  0  0
    5.8283    3.4164    0.0000 R#  0  0  0  0  0  0  0  0  0  0  0  0
  1  2  1  0
  2 13  1  0
  3  2  1  0
  3  4  1  6
  4  5  1  0
  5  6  1  0
  6  7  1  0
  7  8  1  0
  8  9  1  0
  8 10  2  0
  3 11  1  0
 11 14  1  0
 11 12  2  0
M  RGP  2  13   1  14   2
V   13 *
V   14 *
M  END
>  <m_name>  (401)
N-Methyl-Arginine

>  <symbol>  (401)
meR

>  <m_abbr>  (401)
meR

>  <m_type>  (401)
aa

>  <m_subtype>  (401)
non-natural

>  <m_Rgroups>  (401)
H,OH,None,None

>  <m_RgroupIdx>  (401)
12,13,None,None

>  <m_attachmentPointIdx>  (401)
1,10,None,None

>  <natAnalog>  (401)
R

>  <pdbName>  (401)
MF6

$$$$

     RDKit          2D

  9  8  0  0  0  0  0  0  0  0999 V2000
    0.5230   -1.9520    0.0000 C   0  0  0  0  0  0  0  0  0  0  0  0
    0.5230   -1.1270    0.0000 C   0  0  0  0  0  0  0  0  0  0  0  0
    1.2375   -0.7145    0.0000 C   0  0  0  0  0  0  0  0  0  0  0  0
    1.6500   -1.4289    0.0000 C   0  0  0  0  0  0  0  0  0  0  0  0
    1.9520   -0.3020    0.0000 N   0  0  0  0  0  0  0  0  0  0  0  0
    0.8250    0.0000    0.0000 C   0  0  0  0  0  0  0  0  0  0  0  0
    0.0000    0.0000    0.0000 O   0  0  0  0  0  0  0  0  0  0  0  0
    1.9520    0.5230    0.0000 R#  0  0  0  0  0  0  0  0  0  0  0  0
    1.2375    0.7145    0.0000 R#  0  0  0  0  0  0  0  0  0  0  0  0
  1  2  1  0
  3  2  1  0
  3  4  1  6
  3  5  1  0
  5  8  1  0
  3  6  1  0
  6  9  1  0
  6  7  2  0
M  RGP  2   8   1   9   2
V    8 *
V    9 *
M  END
>  <m_name>  (402)
Isovaline

>  <symbol>  (402)
Iva

>  <m_abbr>  (402)
Iva

>  <m_type>  (402)
aa

>  <m_subtype>  (402)
non-natural

>  <m_Rgroups>  (402)
H,OH,None,None

>  <m_RgroupIdx>  (402)
7,8,None,None

>  <m_attachmentPointIdx>  (402)
4,5,None,None

>  <natAnalog>  (402)
V

>  <pdbName>  (402)
6ZS

$$$$

     RDKit          2D

 10  9  0  0  0  0  0  0  0  0999 V2000
    0.5230    0.5230    0.0000 C   0  0  0  0  0  0  0  0  0  0  0  0
    1.2375    0.1105    0.0000 C   0  0  0  0  0  0  0  0  0  0  0  0
    1.2375   -0.7145    0.0000 C   0  0  0  0  0  0  0  0  0  0  0  0
    0.5230   -1.1270    0.0000 C   0  0  0  0  0  0  0  0  0  0  0  0
    1.9520   -1.1270    0.0000 C   0  0  0  0  0  0  0  0  0  0  0  0
    1.9520   -1.9520    0.0000 N   0  0  0  0  0  0  0  0  0  0  0  0
    2.6664   -0.7145    0.0000 C   0  0  0  0  0  0  0  0  0  0  0  0
    3.3809   -1.1270    0.0000 O   0  0  0  0  0  0  0  0  0  0  0  0
    2.6664   -2.3645    0.0000 R#  0  0  0  0  0  0  0  0  0  0  0  0
    2.6664    0.1105    0.0000 R#  0  0  0  0  0  0  0  0  0  0  0  0
  1  2  1  0
  3  2  1  0
  3  4  1  6
  3  5  1  0
  5  6  1  1
  6  9  1  0
  5  7  1  0
  7 10  1  0
  7  8  2  0
M  RGP  2   9   1  10   2
V    9 *
V   10 *
M  END
>  <m_name>  (403)
L-allo-Isoleucine

>  <symbol>  (403)
aIle

>  <m_abbr>  (403)
aIle

>  <m_type>  (403)
aa

>  <m_subtype>  (403)
non-natural

>  <m_Rgroups>  (403)
H,OH,None,None

>  <m_RgroupIdx>  (403)
8,9,None,None

>  <m_attachmentPointIdx>  (403)
5,6,None,None

>  <natAnalog>  (403)
I

>  <pdbName>  (403)
AID

$$$$

     RDKit          2D

 11 10  0  0  0  0  0  0  0  0999 V2000
   10.4062   -3.0353    0.0000 N   0  0  0  0  0  0  0  0  0  0  0  0
    9.9937   -3.7498    0.0000 C   0  0  0  0  0  0  0  0  0  0  0  0
    9.1687   -3.7498    0.0000 C   0  0  0  0  0  0  0  0  0  0  0  0
    8.7562   -4.4643    0.0000 C   0  0  0  0  0  0  0  0  0  0  0  0
    7.9312   -4.4643    0.0000 C   0  0  0  0  0  0  0  0  0  0  0  0
    7.5187   -3.7498    0.0000 O   0  0  0  0  0  0  0  0  0  0  0  0
   10.4062   -4.4643    0.0000 C   0  0  0  0  0  0  0  0  0  0  0  0
    9.9937   -5.1788    0.0000 O   0  0  0  0  0  0  0  0  0  0  0  0
   11.2312   -3.0353    0.0000 R#  0  0  0  0  0  0  0  0  0  0  0  0
    7.5187   -5.1788    0.0000 R#  0  0  0  0  0  0  0  0  0  0  0  0
   11.2312   -4.4643    0.0000 R#  0  0  0  0  0  0  0  0  0  0  0  0
  9  1  1  0
  2  1  1  0
  2  3  1  6
  3  4  1  0
  4  5  1  0
  5 10  1  0
  5  6  2  0
  2  7  1  0
  7 11  1  0
  7  8  2  0
M  RGP  3   9   1  10   2  11   3
V    9 *
V   10 *
V   11 *
M  END
>  <m_name>  (404)
Gamma glutamic acid

>  <symbol>  (404)
gGlu

>  <m_abbr>  (404)
gGlu

>  <m_type>  (404)
aa

>  <m_subtype>  (404)
non-natural

>  <m_Rgroups>  (404)
H,OH,OH,None

>  <m_RgroupIdx>  (404)
8,9,10,None

>  <m_attachmentPointIdx>  (404)
0,4,6,None

>  <natAnalog>  (404)
E

>  <pdbName>  (404)
GGI

$$$$

     RDKit          2D

 10  9  0  0  0  0  0  0  0  0999 V2000
    3.7125    3.5724    0.0000 N   0  0  0  0  0  0  0  0  0  0  0  0
    3.3000    2.8579    0.0000 C   0  0  0  0  0  0  0  0  0  0  0  0
    2.4750    2.8579    0.0000 C   0  0  0  0  0  0  0  0  0  0  0  0
    2.0625    2.1434    0.0000 C   0  0  0  0  0  0  0  0  0  0  0  0
    1.2375    2.1434    0.0000 S   0  0  0  0  0  0  0  0  0  0  0  0
    3.7125    2.1434    0.0000 C   0  0  0  0  0  0  0  0  0  0  0  0
    3.3000    1.4289    0.0000 O   0  0  0  0  0  0  0  0  0  0  0  0
    4.5375    3.5724    0.0000 R#  0  0  0  0  0  0  0  0  0  0  0  0
    0.8250    1.4289    0.0000 R#  0  0  0  0  0  0  0  0  0  0  0  0
    4.5375    2.1434    0.0000 R#  0  0  0  0  0  0  0  0  0  0  0  0
  8  1  1  0
  2  1  1  0
  2  3  1  6
  3  4  1  0
  4  5  1  0
  5  9  1  0
  2  6  1  0
  6 10  1  0
  6  7  2  0
M  RGP  3   8   1   9   3  10   2
V    8 *
V    9 *
V   10 *
M  END
>  <m_name>  (405)
Homocysteine

>  <symbol>  (405)
Hcy

>  <m_abbr>  (405)
Hcy

>  <m_type>  (405)
aa

>  <m_subtype>  (405)
non-natural

>  <m_Rgroups>  (405)
H,OH,H,None

>  <m_RgroupIdx>  (405)
7,9,8,None

>  <m_attachmentPointIdx>  (405)
0,5,4,None

>  <natAnalog>  (405)
C

>  <pdbName>  (405)
HCB

$$$$

     RDKit          2D

  9  8  0  0  0  0  0  0  0  0999 V2000
    0.5230    0.5230    0.0000 O   0  0  0  0  0  0  0  0  0  0  0  0
    1.2375    0.1105    0.0000 C   0  0  0  0  0  0  0  0  0  0  0  0
    1.2375   -0.7145    0.0000 C   0  0  0  0  0  0  0  0  0  0  0  0
    1.9520   -1.1270    0.0000 C   0  0  0  0  0  0  0  0  0  0  0  0
    1.9520   -1.9520    0.0000 N   0  0  0  0  0  0  0  0  0  0  0  0
    2.6664   -0.7145    0.0000 C   0  0  0  0  0  0  0  0  0  0  0  0
    3.3809   -1.1270    0.0000 O   0  0  0  0  0  0  0  0  0  0  0  0
    2.6664   -2.3645    0.0000 R#  0  0  0  0  0  0  0  0  0  0  0  0
    2.6664    0.1105    0.0000 R#  0  0  0  0  0  0  0  0  0  0  0  0
  1  2  1  0
  2  3  1  0
  4  3  1  1
  4  5  1  0
  5  8  1  0
  4  6  1  0
  6  9  1  0
  6  7  2  0
M  RGP  2   8   1   9   2
V    8 *
V    9 *
M  END
>  <m_name>  (406)
Homoserine

>  <symbol>  (406)
Hse

>  <m_abbr>  (406)
Hse

>  <m_type>  (406)
aa

>  <m_subtype>  (406)
non-natural

>  <m_Rgroups>  (406)
H,OH,None,None

>  <m_RgroupIdx>  (406)
7,8,None,None

>  <m_attachmentPointIdx>  (406)
4,5,None,None

>  <natAnalog>  (406)
S

>  <pdbName>  (406)
HSB

$$$$

     RDKit          2D

 10 10  0  0  0  0  0  0  0  0999 V2000
    0.5678    1.9393    0.0000 O   0  0  0  0  0  0  0  0  0  0  0  0
    0.5678    1.1143    0.0000 C   0  0  0  0  0  0  0  0  0  0  0  0
    1.2352    0.6294    0.0000 C   0  0  0  0  0  0  0  0  0  0  0  0
    0.9803   -0.1553    0.0000 C   0  0  0  0  0  0  0  0  0  0  0  0
    0.1553   -0.1553    0.0000 N   0  0  0  0  0  0  0  0  0  0  0  0
   -0.0997    0.6294    0.0000 C   0  0  0  0  0  0  0  0  0  0  0  0
    1.4652   -0.8227    0.0000 C   0  0  0  0  0  0  0  0  0  0  0  0
    1.1296   -1.5764    0.0000 O   0  0  0  0  0  0  0  0  0  0  0  0
   -0.3297   -0.8227    0.0000 R#  0  0  0  0  0  0  0  0  0  0  0  0
    2.2857   -0.7365    0.0000 R#  0  0  0  0  0  0  0  0  0  0  0  0
  2  1  1  6
  2  3  1  0
  4  3  1  0
  4  5  1  0
  5  9  1  0
  5  6  1  0
  2  6  1  0
  4  7  1  1
  7 10  1  0
  7  8  2  0
M  RGP  2   9   1  10   2
V    9 *
V   10 *
M  END
>  <m_name>  (407)
4-Hydroxyproline

>  <symbol>  (407)
Hyp

>  <m_abbr>  (407)
Hyp

>  <m_type>  (407)
aa

>  <m_subtype>  (407)
non-natural

>  <m_Rgroups>  (407)
H,OH,None,None

>  <m_RgroupIdx>  (407)
8,9,None,None

>  <m_attachmentPointIdx>  (407)
4,6,None,None

>  <natAnalog>  (407)
P

>  <pdbName>  (407)
HYJ

$$$$

     RDKit          2D

 11 10  0  0  0  0  0  0  0  0999 V2000
    1.0312    1.0717    0.0000 N   0  0  0  0  0  0  0  0  0  0  0  0
    0.6187    0.3572    0.0000 C   0  0  0  0  0  0  0  0  0  0  0  0
   -0.2062    0.3572    0.0000 C   0  0  0  0  0  0  0  0  0  0  0  0
   -0.6187   -0.3572    0.0000 C   0  0  0  0  0  0  0  0  0  0  0  0
   -1.4437   -0.3572    0.0000 C   0  0  0  0  0  0  0  0  0  0  0  0
   -1.8562    0.3572    0.0000 O   0  0  0  0  0  0  0  0  0  0  0  0
    1.0312   -0.3572    0.0000 C   0  0  0  0  0  0  0  0  0  0  0  0
    0.6187   -1.0717    0.0000 O   0  0  0  0  0  0  0  0  0  0  0  0
    1.8562    1.0717    0.0000 R#  0  0  0  0  0  0  0  0  0  0  0  0
   -1.8562   -1.0717    0.0000 R#  0  0  0  0  0  0  0  0  0  0  0  0
    1.8562   -0.3572    0.0000 R#  0  0  0  0  0  0  0  0  0  0  0  0
  9  1  1  0
  2  1  1  0
  2  3  1  1
  3  4  1  0
  4  5  1  0
  5 10  1  0
  5  6  2  0
  2  7  1  0
  7 11  1  0
  7  8  2  0
M  RGP  3   9   1  10   2  11   3
V    9 *
V   10 *
V   11 *
M  END
>  <m_name>  (408)
D-Gamma glutamic acid

>  <symbol>  (408)
D_gGlu

>  <m_abbr>  (408)
D_gGlu

>  <m_type>  (408)
aa

>  <m_subtype>  (408)
non-natural

>  <m_Rgroups>  (408)
H,OH,OH,None

>  <m_RgroupIdx>  (408)
8,9,10,None

>  <m_attachmentPointIdx>  (408)
0,4,6,None

>  <natAnalog>  (408)
E

>  <pdbName>  (408)
DGE

$$$$

     RDKit          2D

 10  9  0  0  0  0  0  0  0  0999 V2000
    0.8250   -1.4289    0.0000 C   0  0  0  0  0  0  0  0  0  0  0  0
    1.2375   -2.1434    0.0000 C   0  0  0  0  0  0  0  0  0  0  0  0
    2.0625   -2.1434    0.0000 C   0  0  0  0  0  0  0  0  0  0  0  0
    2.4750   -2.8579    0.0000 C   0  0  0  0  0  0  0  0  0  0  0  0
    3.3000   -2.8579    0.0000 C   0  0  0  0  0  0  0  0  0  0  0  0
    3.7125   -3.5724    0.0000 N   0  0  0  0  0  0  0  0  0  0  0  0
    3.7125   -2.1434    0.0000 C   0  0  0  0  0  0  0  0  0  0  0  0
    4.5375   -2.1434    0.0000 O   0  0  0  0  0  0  0  0  0  0  0  0
    4.5375   -3.5724    0.0000 R#  0  0  0  0  0  0  0  0  0  0  0  0
    3.3000   -1.4289    0.0000 R#  0  0  0  0  0  0  0  0  0  0  0  0
  1  2  1  0
  2  3  1  0
  3  4  1  0
  5  4  1  6
  5  6  1  0
  6  9  1  0
  5  7  1  0
  7 10  1  0
  7  8  2  0
M  RGP  2   9   1  10   2
V    9 *
V   10 *
M  END
>  <m_name>  (409)
D-Norleucine

>  <symbol>  (409)
D_Nle

>  <m_abbr>  (409)
D_Nle

>  <m_type>  (409)
aa

>  <m_subtype>  (409)
non-natural

>  <m_Rgroups>  (409)
H,OH,None,None

>  <m_RgroupIdx>  (409)
8,9,None,None

>  <m_attachmentPointIdx>  (409)
5,6,None,None

>  <natAnalog>  (409)
L

>  <pdbName>  (409)
DNU

$$$$

     RDKit          2D

 14 14  0  0  0  0  0  0  0  0999 V2000
    2.1434   -0.4125    0.0000 N   0  0  0  0  0  0  0  0  0  0  0  0
    2.1434   -1.2375    0.0000 C   0  0  0  0  0  0  0  0  0  0  0  0
    1.4289   -1.6500    0.0000 C   0  0  0  0  0  0  0  0  0  0  0  0
    1.4289   -2.4750    0.0000 C   0  0  0  0  0  0  0  0  0  0  0  0
    0.7145   -2.8875    0.0000 C   0  0  0  0  0  0  0  0  0  0  0  0
    0.7145   -3.7125    0.0000 C   0  0  0  0  0  0  0  0  0  0  0  0
    0.0000   -4.1250    0.0000 C   0  0  0  0  0  0  0  0  0  0  0  0
   -0.7145   -3.7125    0.0000 C   0  0  0  0  0  0  0  0  0  0  0  0
   -0.7145   -2.8875    0.0000 C   0  0  0  0  0  0  0  0  0  0  0  0
    0.0000   -2.4750    0.0000 C   0  0  0  0  0  0  0  0  0  0  0  0
    2.8579   -1.6500    0.0000 C   0  0  0  0  0  0  0  0  0  0  0  0
    2.8579   -2.4750    0.0000 O   0  0  0  0  0  0  0  0  0  0  0  0
    2.8579    0.0000    0.0000 R#  0  0  0  0  0  0  0  0  0  0  0  0
    3.5724   -1.2375    0.0000 R#  0  0  0  0  0  0  0  0  0  0  0  0
 13  1  1  0
  2  1  1  0
  2  3  1  1
  3  4  1  0
  4  5  1  0
  5  6  2  0
  6  7  1  0
  7  8  2  0
  8  9  1  0
  9 10  2  0
  5 10  1  0
  2 11  1  0
 11 14  1  0
 11 12  2  0
M  RGP  2  13   1  14   2
V   13 *
V   14 *
M  END
>  <m_name>  (410)
D-Homophenylalanine

>  <symbol>  (410)
D_hPhe

>  <m_abbr>  (410)
D_hPhe

>  <m_type>  (410)
aa

>  <m_subtype>  (410)
non-natural

>  <m_Rgroups>  (410)
H,OH,None,None

>  <m_RgroupIdx>  (410)
12,13,None,None

>  <m_attachmentPointIdx>  (410)
0,10,None,None

>  <natAnalog>  (410)
F

>  <pdbName>  (410)
DHX

$$$$

     RDKit          2D

 10 10  0  0  0  0  0  0  0  0999 V2000
    0.5678    1.9393    0.0000 O   0  0  0  0  0  0  0  0  0  0  0  0
    0.5678    1.1143    0.0000 C   0  0  0  0  0  0  0  0  0  0  0  0
    1.2352    0.6294    0.0000 C   0  0  0  0  0  0  0  0  0  0  0  0
    0.9803   -0.1553    0.0000 C   0  0  0  0  0  0  0  0  0  0  0  0
    0.1553   -0.1553    0.0000 N   0  0  0  0  0  0  0  0  0  0  0  0
   -0.0997    0.6294    0.0000 C   0  0  0  0  0  0  0  0  0  0  0  0
    1.4652   -0.8227    0.0000 C   0  0  0  0  0  0  0  0  0  0  0  0
    1.1296   -1.5764    0.0000 O   0  0  0  0  0  0  0  0  0  0  0  0
   -0.3297   -0.8227    0.0000 R#  0  0  0  0  0  0  0  0  0  0  0  0
    2.2857   -0.7365    0.0000 R#  0  0  0  0  0  0  0  0  0  0  0  0
  2  1  1  1
  2  3  1  0
  4  3  1  0
  4  5  1  0
  5  9  1  0
  5  6  1  0
  2  6  1  0
  4  7  1  6
  7 10  1  0
  7  8  2  0
M  RGP  2   9   1  10   2
V    9 *
V   10 *
M  END
>  <m_name>  (411)
D-4-Hydroxyproline

>  <symbol>  (411)
D_Hyp

>  <m_abbr>  (411)
D_Hyp

>  <m_type>  (411)
aa

>  <m_subtype>  (411)
non-natural

>  <m_Rgroups>  (411)
H,OH,None,None

>  <m_RgroupIdx>  (411)
8,9,None,None

>  <m_attachmentPointIdx>  (411)
4,6,None,None

>  <natAnalog>  (411)
P

>  <pdbName>  (411)
DH0

$$$$

     RDKit          2D

  9  8  0  0  0  0  0  0  0  0999 V2000
    0.5230    0.5230    0.0000 C   0  0  0  0  0  0  0  0  0  0  0  0
    1.2375    0.1105    0.0000 C   0  0  0  0  0  0  0  0  0  0  0  0
    1.2375   -0.7145    0.0000 C   0  0  0  0  0  0  0  0  0  0  0  0
    1.9520   -1.1270    0.0000 C   0  0  0  0  0  0  0  0  0  0  0  0
    1.9520   -1.9520    0.0000 N   0  0  0  0  0  0  0  0  0  0  0  0
    2.6664   -0.7145    0.0000 C   0  0  0  0  0  0  0  0  0  0  0  0
    3.3809   -1.1270    0.0000 O   0  0  0  0  0  0  0  0  0  0  0  0
    2.6664   -2.3645    0.0000 R#  0  0  0  0  0  0  0  0  0  0  0  0
    2.6664    0.1105    0.0000 R#  0  0  0  0  0  0  0  0  0  0  0  0
  1  2  1  0
  2  3  1  0
  4  3  1  6
  4  5  1  0
  5  8  1  0
  4  6  1  0
  6  9  1  0
  6  7  2  0
M  RGP  2   8   1   9   2
V    8 *
V    9 *
M  END
>  <m_name>  (412)
D-Norvaline

>  <symbol>  (412)
D_Nva

>  <m_abbr>  (412)
D_Nva

>  <m_type>  (412)
aa

>  <m_subtype>  (412)
non-natural

>  <m_Rgroups>  (412)
H,OH,None,None

>  <m_RgroupIdx>  (412)
7,8,None,None

>  <m_attachmentPointIdx>  (412)
4,5,None,None

>  <natAnalog>  (412)
V

>  <pdbName>  (412)
DGK

$$$$

     RDKit          2D

 11 10  0  0  0  0  0  0  0  0999 V2000
    3.7125   -3.5724    0.0000 N   0  0  0  0  0  0  0  0  0  0  0  0
    3.3000   -2.8579    0.0000 C   0  0  0  0  0  0  0  0  0  0  0  0
    2.4750   -2.8579    0.0000 C   0  0  0  0  0  0  0  0  0  0  0  0
    2.0625   -2.1434    0.0000 C   0  0  0  0  0  0  0  0  0  0  0  0
    1.2375   -2.1434    0.0000 C   0  0  0  0  0  0  0  0  0  0  0  0
    0.8250   -1.4289    0.0000 N   0  0  0  0  0  0  0  0  0  0  0  0
    3.7125   -2.1434    0.0000 C   0  0  0  0  0  0  0  0  0  0  0  0
    4.5375   -2.1434    0.0000 O   0  0  0  0  0  0  0  0  0  0  0  0
    4.5375   -3.5724    0.0000 R#  0  0  0  0  0  0  0  0  0  0  0  0
    0.0000   -1.4289    0.0000 R#  0  0  0  0  0  0  0  0  0  0  0  0
    3.3000   -1.4289    0.0000 R#  0  0  0  0  0  0  0  0  0  0  0  0
  9  1  1  0
  2  1  1  0
  2  3  1  6
  3  4  1  0
  4  5  1  0
  5  6  1  0
  6 10  1  0
  2  7  1  0
  7 11  1  0
  7  8  2  0
M  RGP  3   9   1  10   3  11   2
V    9 *
V   10 *
V   11 *
M  END
>  <m_name>  (413)
D-Ornithine

>  <symbol>  (413)
D_Orn

>  <m_abbr>  (413)
D_Orn

>  <m_type>  (413)
aa

>  <m_subtype>  (413)
non-natural

>  <m_Rgroups>  (413)
H,OH,H,None

>  <m_RgroupIdx>  (413)
8,10,9,None

>  <m_attachmentPointIdx>  (413)
0,6,5,None

>  <natAnalog>  (413)
K

>  <pdbName>  (413)
DOU

$$$$

     RDKit          2D

 10 10  0  0  0  0  0  0  0  0999 V2000
    0.5678    1.1143    0.0000 N   0  0  0  0  0  0  0  0  0  0  0  0
    1.2352    0.6294    0.0000 C   0  0  0  0  0  0  0  0  0  0  0  0
    0.9803   -0.1553    0.0000 C   0  0  0  0  0  0  0  0  0  0  0  0
    0.1553   -0.1553    0.0000 C   0  0  0  0  0  0  0  0  0  0  0  0
   -0.0997    0.6294    0.0000 C   0  0  0  0  0  0  0  0  0  0  0  0
   -0.8843    0.8843    0.0000 O   0  0  0  0  0  0  0  0  0  0  0  0
    2.0198    0.8843    0.0000 C   0  0  0  0  0  0  0  0  0  0  0  0
    2.6329    0.3323    0.0000 O   0  0  0  0  0  0  0  0  0  0  0  0
    0.5678    1.9393    0.0000 R#  0  0  0  0  0  0  0  0  0  0  0  0
    2.1913    1.6913    0.0000 R#  0  0  0  0  0  0  0  0  0  0  0  0
  9  1  1  0
  2  1  1  0
  2  3  1  0
  3  4  1  0
  4  5  1  0
  1  5  1  0
  5  6  2  0
  2  7  1  6
  7 10  1  0
  7  8  2  0
M  RGP  2   9   1  10   2
V    9 *
V   10 *
M  END
>  <m_name>  (414)
Pyroglutamic acid

>  <symbol>  (414)
Pyr

>  <m_abbr>  (414)
Pyr

>  <m_type>  (414)
aa

>  <m_subtype>  (414)
non-natural

>  <m_Rgroups>  (414)
H,OH,None,None

>  <m_RgroupIdx>  (414)
8,9,None,None

>  <m_attachmentPointIdx>  (414)
0,6,None,None

>  <natAnalog>  (414)
E

>  <pdbName>  (414)
PYK

$$$$

     RDKit          2D

  9  9  0  0  0  0  0  0  0  0999 V2000
    0.5678    1.9393    0.0000 C   0  0  0  0  0  0  0  0  0  0  0  0
   -0.1467    2.3518    0.0000 O   0  0  0  0  0  0  0  0  0  0  0  0
    0.5678    1.1143    0.0000 C   0  0  0  0  0  0  0  0  0  0  0  0
    1.2352    0.6294    0.0000 C   0  0  0  0  0  0  0  0  0  0  0  0
    0.9803   -0.1553    0.0000 C   0  0  0  0  0  0  0  0  0  0  0  0
    0.1553   -0.1553    0.0000 C   0  0  0  0  0  0  0  0  0  0  0  0
   -0.3297   -0.8227    0.0000 O   0  0  0  0  0  0  0  0  0  0  0  0
   -0.0997    0.6294    0.0000 N   0  0  0  0  0  0  0  0  0  0  0  0
    1.2822    2.3518    0.0000 R#  0  0  0  0  0  0  0  0  0  0  0  0
  9  1  1  0
  1  2  2  0
  3  1  1  1
  3  4  1  0
  4  5  1  0
  5  6  1  0
  6  7  2  0
  6  8  1  0
  3  8  1  0
M  RGP  1   9   2
V    9 *
M  END
>  <m_name>  (415)
D-Pyroglutamic acid

>  <symbol>  (415)
D_Pyr

>  <m_abbr>  (415)
D_Pyr

>  <m_type>  (415)
aa

>  <m_subtype>  (415)
non-natural

>  <m_Rgroups>  (415)
None,OH,None,None

>  <m_RgroupIdx>  (415)
None,8,None,None

>  <m_attachmentPointIdx>  (415)
None,0,None,None

>  <natAnalog>  (415)
E

>  <pdbName>  (415)
DG5

$$$$

     RDKit          2D

 14 14  0  0  0  0  0  0  0  0999 V2000
    0.7145    2.0625    0.0000 Cl  0  0  0  0  0  0  0  0  0  0  0  0
    0.7145    1.2375    0.0000 C   0  0  0  0  0  0  0  0  0  0  0  0
    1.4289    0.8250    0.0000 C   0  0  0  0  0  0  0  0  0  0  0  0
    1.4289    0.0000    0.0000 C   0  0  0  0  0  0  0  0  0  0  0  0
    0.7145   -0.4125    0.0000 C   0  0  0  0  0  0  0  0  0  0  0  0
    0.0000    0.0000    0.0000 C   0  0  0  0  0  0  0  0  0  0  0  0
   -0.7145   -0.4125    0.0000 C   0  0  0  0  0  0  0  0  0  0  0  0
   -0.7145   -1.2375    0.0000 C   0  0  0  0  0  0  0  0  0  0  0  0
   -1.4289   -1.6500    0.0000 N   0  0  0  0  0  0  0  0  0  0  0  0
    0.0000   -1.6500    0.0000 C   0  0  0  0  0  0  0  0  0  0  0  0
    0.7145   -1.2375    0.0000 O   0  0  0  0  0  0  0  0  0  0  0  0
    0.0000    0.8250    0.0000 C   0  0  0  0  0  0  0  0  0  0  0  0
   -1.4289   -2.4750    0.0000 R#  0  0  0  0  0  0  0  0  0  0  0  0
    0.0000   -2.4750    0.0000 R#  0  0  0  0  0  0  0  0  0  0  0  0
  1  2  1  0
  2  3  2  0
  3  4  1  0
  4  5  2  0
  5  6  1  0
  6  7  1  0
  8  7  1  1
  8  9  1  0
  9 13  1  0
  8 10  1  0
 10 14  1  0
 10 11  2  0
  6 12  2  0
  2 12  1  0
M  RGP  2  13   1  14   2
V   13 *
V   14 *
M  END
>  <m_name>  (416)
3-Chloro-L-phenylalanine

>  <symbol>  (416)
Phe_3Cl

>  <m_abbr>  (416)
Phe_3Cl

>  <m_type>  (416)
aa

>  <m_subtype>  (416)
non-natural

>  <m_Rgroups>  (416)
H,OH,None,None

>  <m_RgroupIdx>  (416)
12,13,None,None

>  <m_attachmentPointIdx>  (416)
8,9,None,None

>  <natAnalog>  (416)
F

>  <pdbName>  (416)
PAA

$$$$

     RDKit          2D

 14 14  0  0  0  0  0  0  0  0999 V2000
    0.7145    2.0625    0.0000 Cl  0  0  0  0  0  0  0  0  0  0  0  0
    0.7145    1.2375    0.0000 C   0  0  0  0  0  0  0  0  0  0  0  0
    1.4289    0.8250    0.0000 C   0  0  0  0  0  0  0  0  0  0  0  0
    1.4289    0.0000    0.0000 C   0  0  0  0  0  0  0  0  0  0  0  0
    0.7145   -0.4125    0.0000 C   0  0  0  0  0  0  0  0  0  0  0  0
    0.7145   -1.2375    0.0000 C   0  0  0  0  0  0  0  0  0  0  0  0
    1.4289   -1.6500    0.0000 C   0  0  0  0  0  0  0  0  0  0  0  0
    1.4289   -2.4750    0.0000 N   0  0  0  0  0  0  0  0  0  0  0  0
    2.1434   -1.2375    0.0000 C   0  0  0  0  0  0  0  0  0  0  0  0
    2.1434   -0.4125    0.0000 O   0  0  0  0  0  0  0  0  0  0  0  0
    0.0000    0.0000    0.0000 C   0  0  0  0  0  0  0  0  0  0  0  0
    0.0000    0.8250    0.0000 C   0  0  0  0  0  0  0  0  0  0  0  0
    2.1434   -2.8875    0.0000 R#  0  0  0  0  0  0  0  0  0  0  0  0
    2.8579   -1.6500    0.0000 R#  0  0  0  0  0  0  0  0  0  0  0  0
  1  2  1  0
  2  3  2  0
  3  4  1  0
  4  5  2  0
  5  6  1  0
  7  6  1  1
  7  8  1  0
  8 13  1  0
  7  9  1  0
  9 14  1  0
  9 10  2  0
  5 11  1  0
 11 12  2  0
  2 12  1  0
M  RGP  2  13   1  14   2
V   13 *
V   14 *
M  END
>  <m_name>  (417)
4-Chloro-L-phenylalanine

>  <symbol>  (417)
Phe_4Cl

>  <m_abbr>  (417)
Phe_4Cl

>  <m_type>  (417)
aa

>  <m_subtype>  (417)
non-natural

>  <m_Rgroups>  (417)
H,OH,None,None

>  <m_RgroupIdx>  (417)
12,13,None,None

>  <m_attachmentPointIdx>  (417)
7,8,None,None

>  <natAnalog>  (417)
F

>  <pdbName>  (417)
PBJ

$$$$

     RDKit          2D

 14 14  0  0  0  0  0  0  0  0999 V2000
    0.7145    2.0625    0.0000 N   0  0  0  0  0  0  0  0  0  0  0  0
    0.7145    1.2375    0.0000 C   0  0  0  0  0  0  0  0  0  0  0  0
    1.4289    0.8250    0.0000 C   0  0  0  0  0  0  0  0  0  0  0  0
    1.4289    0.0000    0.0000 C   0  0  0  0  0  0  0  0  0  0  0  0
    0.7145   -0.4125    0.0000 C   0  0  0  0  0  0  0  0  0  0  0  0
    0.7145   -1.2375    0.0000 C   0  0  0  0  0  0  0  0  0  0  0  0
    1.4289   -1.6500    0.0000 C   0  0  0  0  0  0  0  0  0  0  0  0
    1.4289   -2.4750    0.0000 N   0  0  0  0  0  0  0  0  0  0  0  0
    2.1434   -1.2375    0.0000 C   0  0  0  0  0  0  0  0  0  0  0  0
    2.1434   -0.4125    0.0000 O   0  0  0  0  0  0  0  0  0  0  0  0
    0.0000    0.0000    0.0000 C   0  0  0  0  0  0  0  0  0  0  0  0
    0.0000    0.8250    0.0000 C   0  0  0  0  0  0  0  0  0  0  0  0
    2.1434   -2.8875    0.0000 R#  0  0  0  0  0  0  0  0  0  0  0  0
    2.8579   -1.6500    0.0000 R#  0  0  0  0  0  0  0  0  0  0  0  0
  1  2  1  0
  2  3  2  0
  3  4  1  0
  4  5  2  0
  5  6  1  0
  7  6  1  1
  7  8  1  0
  8 13  1  0
  7  9  1  0
  9 14  1  0
  9 10  2  0
  5 11  1  0
 11 12  2  0
  2 12  1  0
M  RGP  2  13   1  14   2
V   13 *
V   14 *
M  END
>  <m_name>  (418)
p-Aminophenylalanine

>  <symbol>  (418)
Phe_4NH2

>  <m_abbr>  (418)
Phe_4NH2

>  <m_type>  (418)
aa

>  <m_subtype>  (418)
non-natural

>  <m_Rgroups>  (418)
H,OH,None,None

>  <m_RgroupIdx>  (418)
12,13,None,None

>  <m_attachmentPointIdx>  (418)
7,8,None,None

>  <natAnalog>  (418)
F

>  <pdbName>  (418)
PD0

$$$$

     RDKit          2D

 12 11  0  0  0  0  0  0  0  0999 V2000
   -0.8250   -2.8579    0.0000 C   0  0  0  0  0  0  0  0  0  0  0  0
   -0.4125   -2.1434    0.0000 C   0  0  0  0  0  0  0  0  0  0  0  0
    0.3020   -2.5559    0.0000 C   0  0  0  0  0  0  0  0  0  0  0  0
   -1.1270   -1.7309    0.0000 C   0  0  0  0  0  0  0  0  0  0  0  0
    0.0000   -1.4289    0.0000 O   0  0  0  0  0  0  0  0  0  0  0  0
    0.8250   -1.4289    0.0000 C   0  0  0  0  0  0  0  0  0  0  0  0
    1.2375   -0.7145    0.0000 C   0  0  0  0  0  0  0  0  0  0  0  0
    2.0625   -0.7145    0.0000 N   0  0  0  0  0  0  0  0  0  0  0  0
    0.8250    0.0000    0.0000 C   0  0  0  0  0  0  0  0  0  0  0  0
    0.0000    0.0000    0.0000 O   0  0  0  0  0  0  0  0  0  0  0  0
    2.4750    0.0000    0.0000 R#  0  0  0  0  0  0  0  0  0  0  0  0
    1.2375    0.7145    0.0000 R#  0  0  0  0  0  0  0  0  0  0  0  0
  1  2  1  0
  2  3  1  0
  2  4  1  0
  2  5  1  0
  5  6  1  0
  7  6  1  1
  7  8  1  0
  8 11  1  0
  7  9  1  0
  9 12  1  0
  9 10  2  0
M  RGP  2  11   1  12   2
V   11 *
V   12 *
M  END
>  <m_name>  (419)
O-tert-Butyl-L-serine

>  <symbol>  (419)
Ser_tBu

>  <m_abbr>  (419)
Ser_tBu

>  <m_type>  (419)
aa

>  <m_subtype>  (419)
non-natural

>  <m_Rgroups>  (419)
H,OH,None,None

>  <m_RgroupIdx>  (419)
10,11,None,None

>  <m_attachmentPointIdx>  (419)
7,8,None,None

>  <natAnalog>  (419)
S

>  <pdbName>  (419)
SED

$$$$

     RDKit          2D

 21 22  0  0  0  0  0  0  0  0999 V2000
    0.7145   -0.4125    0.0000 N   0  0  0  0  0  0  0  0  0  0  0  0
    0.7145   -1.2375    0.0000 C   0  0  0  0  0  0  0  0  0  0  0  0
    1.4289   -1.6500    0.0000 C   0  0  0  0  0  0  0  0  0  0  0  0
    1.4289   -2.4750    0.0000 C   0  0  0  0  0  0  0  0  0  0  0  0
    2.1434   -2.8875    0.0000 C   0  0  0  0  0  0  0  0  0  0  0  0
    2.1434   -3.7125    0.0000 C   0  0  0  0  0  0  0  0  0  0  0  0
    1.4289   -4.1250    0.0000 C   0  0  0  0  0  0  0  0  0  0  0  0
    1.4289   -4.9500    0.0000 O   0  0  0  0  0  0  0  0  0  0  0  0
    2.1434   -5.3625    0.0000 C   0  0  0  0  0  0  0  0  0  0  0  0
    2.1434   -6.1875    0.0000 C   0  0  0  0  0  0  0  0  0  0  0  0
    2.8579   -6.6000    0.0000 C   0  0  0  0  0  0  0  0  0  0  0  0
    2.8579   -7.4250    0.0000 C   0  0  0  0  0  0  0  0  0  0  0  0
    2.1434   -7.8375    0.0000 C   0  0  0  0  0  0  0  0  0  0  0  0
    1.4289   -7.4250    0.0000 C   0  0  0  0  0  0  0  0  0  0  0  0
    1.4289   -6.6000    0.0000 C   0  0  0  0  0  0  0  0  0  0  0  0
    0.7145   -3.7125    0.0000 C   0  0  0  0  0  0  0  0  0  0  0  0
    0.7145   -2.8875    0.0000 C   0  0  0  0  0  0  0  0  0  0  0  0
    0.0000   -1.6500    0.0000 C   0  0  0  0  0  0  0  0  0  0  0  0
   -0.7145   -1.2375    0.0000 O   0  0  0  0  0  0  0  0  0  0  0  0
    0.0000    0.0000    0.0000 R#  0  0  0  0  0  0  0  0  0  0  0  0
    0.0000   -2.4750    0.0000 R#  0  0  0  0  0  0  0  0  0  0  0  0
 20  1  1  0
  2  1  1  0
  2  3  1  1
  3  4  1  0
  4  5  2  0
  5  6  1  0
  6  7  2  0
  7  8  1  0
  8  9  1  0
  9 10  1  0
 10 11  2  0
 11 12  1  0
 12 13  2  0
 13 14  1  0
 14 15  2  0
 10 15  1  0
  7 16  1  0
 16 17  2  0
  4 17  1  0
  2 18  1  0
 18 21  1  0
 18 19  2  0
M  RGP  2  20   1  21   2
V   20 *
V   21 *
M  END
>  <m_name>  (420)
O-Benzyl-L-tyrosine

>  <symbol>  (420)
Tyr_Bn

>  <m_abbr>  (420)
Tyr_Bn

>  <m_type>  (420)
aa

>  <m_subtype>  (420)
non-natural

>  <m_Rgroups>  (420)
H,OH,None,None

>  <m_RgroupIdx>  (420)
19,20,None,None

>  <m_attachmentPointIdx>  (420)
0,17,None,None

>  <natAnalog>  (420)
Y

>  <pdbName>  (420)
TYH

$$$$

     RDKit          2D

 17 18  0  0  0  0  0  0  0  0999 V2000
    0.7145   -3.7125    0.0000 N   0  0  0  0  0  0  0  0  0  0  0  0
    0.7145   -2.8875    0.0000 C   0  0  0  0  0  0  0  0  0  0  0  0
    1.4289   -2.4750    0.0000 C   0  0  0  0  0  0  0  0  0  0  0  0
    1.4289   -1.6500    0.0000 C   0  0  0  0  0  0  0  0  0  0  0  0
    0.7145   -1.2375    0.0000 C   0  0  0  0  0  0  0  0  0  0  0  0
    0.7145   -0.4125    0.0000 C   0  0  0  0  0  0  0  0  0  0  0  0
    1.4289    0.0000    0.0000 C   0  0  0  0  0  0  0  0  0  0  0  0
    2.1434   -0.4125    0.0000 C   0  0  0  0  0  0  0  0  0  0  0  0
    2.8579    0.0000    0.0000 C   0  0  0  0  0  0  0  0  0  0  0  0
    3.5724   -0.4125    0.0000 C   0  0  0  0  0  0  0  0  0  0  0  0
    3.5724   -1.2375    0.0000 C   0  0  0  0  0  0  0  0  0  0  0  0
    2.8579   -1.6500    0.0000 C   0  0  0  0  0  0  0  0  0  0  0  0
    2.1434   -1.2375    0.0000 C   0  0  0  0  0  0  0  0  0  0  0  0
    0.0000   -2.4750    0.0000 C   0  0  0  0  0  0  0  0  0  0  0  0
   -0.7145   -2.8875    0.0000 O   0  0  0  0  0  0  0  0  0  0  0  0
    0.0000   -4.1250    0.0000 R#  0  0  0  0  0  0  0  0  0  0  0  0
    0.0000   -1.6500    0.0000 R#  0  0  0  0  0  0  0  0  0  0  0  0
 16  1  1  0
  2  1  1  0
  2  3  1  6
  3  4  1  0
  4  5  2  0
  5  6  1  0
  6  7  2  0
  7  8  1  0
  8  9  2  0
  9 10  1  0
 10 11  2  0
 11 12  1  0
 12 13  2  0
  4 13  1  0
  8 13  1  0
  2 14  1  0
 14 17  1  0
 14 15  2  0
M  RGP  2  16   1  17   2
V   16 *
V   17 *
M  END
>  <m_name>  (421)
3-(1-naphthyl)-alanine

>  <symbol>  (421)
1Nal

>  <m_abbr>  (421)
1Nal

>  <m_type>  (421)
aa

>  <m_subtype>  (421)
non-natural

>  <m_Rgroups>  (421)
H,OH,None,None

>  <m_RgroupIdx>  (421)
15,16,None,None

>  <m_attachmentPointIdx>  (421)
0,13,None,None

>  <natAnalog>  (421)
A

>  <pdbName>  (421)
1NC

$$$$

     RDKit          2D

 18 17  0  0  0  0  0  0  0  0999 V2000
   -1.1929   -1.8573    0.0000 C   0  0  0  0  0  0  0  0  0  0  0  0
   -0.6528   -2.4810    0.0000 C   0  0  0  0  0  0  0  0  0  0  0  0
   -1.2765   -3.0211    0.0000 C   0  0  0  0  0  0  0  0  0  0  0  0
   -0.0292   -1.9409    0.0000 C   0  0  0  0  0  0  0  0  0  0  0  0
   -0.1127   -3.1046    0.0000 O   0  0  0  0  0  0  0  0  0  0  0  0
    0.6974   -2.9487    0.0000 C   0  0  0  0  0  0  0  0  0  0  0  0
    0.9675   -2.1692    0.0000 O   0  0  0  0  0  0  0  0  0  0  0  0
    1.2375   -3.5724    0.0000 N   0  0  0  0  0  0  0  0  0  0  0  0
    2.0476   -3.4164    0.0000 C   0  0  0  0  0  0  0  0  0  0  0  0
    2.5877   -4.0401    0.0000 C   0  0  0  0  0  0  0  0  0  0  0  0
    3.3979   -3.8842    0.0000 C   0  0  0  0  0  0  0  0  0  0  0  0
    3.9379   -4.5078    0.0000 C   0  0  0  0  0  0  0  0  0  0  0  0
    4.7481   -4.3519    0.0000 C   0  0  0  0  0  0  0  0  0  0  0  0
    5.2882   -4.9755    0.0000 N   0  0  0  0  0  0  0  0  0  0  0  0
    5.0181   -3.5724    0.0000 C   0  0  0  0  0  0  0  0  0  0  0  0
    5.8283   -3.4164    0.0000 O   0  0  0  0  0  0  0  0  0  0  0  0
    6.0983   -4.8196    0.0000 R#  0  0  0  0  0  0  0  0  0  0  0  0
    4.4780   -2.9487    0.0000 R#  0  0  0  0  0  0  0  0  0  0  0  0
  1  2  1  0
  2  3  1  0
  2  4  1  0
  2  5  1  0
  5  6  1  0
  6  7  2  0
  6  8  1  0
  8  9  1  0
  9 10  1  0
 10 11  1  0
 11 12  1  0
 13 12  1  1
 13 14  1  0
 14 17  1  0
 13 15  1  0
 15 18  1  0
 15 16  2  0
M  RGP  2  17   1  18   2
V   17 *
V   18 *
M  END
>  <m_name>  (422)
N-epsilon-tert-Boc-L-lysine

>  <symbol>  (422)
Lys_Boc

>  <m_abbr>  (422)
Lys_Boc

>  <m_type>  (422)
aa

>  <m_subtype>  (422)
non-natural

>  <m_Rgroups>  (422)
H,OH,None,None

>  <m_RgroupIdx>  (422)
16,17,None,None

>  <m_attachmentPointIdx>  (422)
13,14,None,None

>  <natAnalog>  (422)
K

>  <pdbName>  (422)
LYI

$$$$

     RDKit          2D

  9  8  0  0  0  0  0  0  0  0999 V2000
    0.0000   -1.4289    0.0000 C   0  0  0  0  0  0  0  0  0  0  0  0
    0.8250   -1.4289    0.0000 C   0  0  0  0  0  0  0  0  0  0  0  0
    1.2375   -2.1434    0.0000 O   0  0  0  0  0  0  0  0  0  0  0  0
    1.2375   -0.7145    0.0000 C   0  0  0  0  0  0  0  0  0  0  0  0
    2.0625   -0.7145    0.0000 N   0  0  0  0  0  0  0  0  0  0  0  0
    0.8250    0.0000    0.0000 C   0  0  0  0  0  0  0  0  0  0  0  0
    0.0000    0.0000    0.0000 O   0  0  0  0  0  0  0  0  0  0  0  0
    2.4750    0.0000    0.0000 R#  0  0  0  0  0  0  0  0  0  0  0  0
    1.2375    0.7145    0.0000 R#  0  0  0  0  0  0  0  0  0  0  0  0
  2  1  1  1
  2  3  1  0
  2  4  1  0
  4  5  1  1
  5  8  1  0
  4  6  1  0
  6  9  1  0
  6  7  2  0
M  RGP  2   8   1   9   2
V    8 *
V    9 *
M  END
>  <m_name>  (423)
L-allo-Threonine

>  <symbol>  (423)
aThr

>  <m_abbr>  (423)
aThr

>  <m_type>  (423)
aa

>  <m_subtype>  (423)
non-natural

>  <m_Rgroups>  (423)
H,OH,None,None

>  <m_RgroupIdx>  (423)
7,8,None,None

>  <m_attachmentPointIdx>  (423)
4,5,None,None

>  <natAnalog>  (423)
T

>  <pdbName>  (423)
ATB

$$$$

     RDKit          2D

 17 18  0  0  0  0  0  0  0  0999 V2000
   -0.7145   -2.8875    0.0000 N   0  0  0  0  0  0  0  0  0  0  0  0
    0.0000   -2.4750    0.0000 C   0  0  0  0  0  0  0  0  0  0  0  0
    0.0000   -1.6500    0.0000 C   0  0  0  0  0  0  0  0  0  0  0  0
    0.7145   -1.2375    0.0000 C   0  0  0  0  0  0  0  0  0  0  0  0
    0.7145   -0.4125    0.0000 C   0  0  0  0  0  0  0  0  0  0  0  0
    1.4289    0.0000    0.0000 C   0  0  0  0  0  0  0  0  0  0  0  0
    2.1434   -0.4125    0.0000 C   0  0  0  0  0  0  0  0  0  0  0  0
    2.8579    0.0000    0.0000 C   0  0  0  0  0  0  0  0  0  0  0  0
    3.5724   -0.4125    0.0000 C   0  0  0  0  0  0  0  0  0  0  0  0
    3.5724   -1.2375    0.0000 C   0  0  0  0  0  0  0  0  0  0  0  0
    2.8579   -1.6500    0.0000 C   0  0  0  0  0  0  0  0  0  0  0  0
    2.1434   -1.2375    0.0000 C   0  0  0  0  0  0  0  0  0  0  0  0
    1.4289   -1.6500    0.0000 C   0  0  0  0  0  0  0  0  0  0  0  0
    0.7145   -2.8875    0.0000 C   0  0  0  0  0  0  0  0  0  0  0  0
    0.7145   -3.7125    0.0000 O   0  0  0  0  0  0  0  0  0  0  0  0
   -0.7145   -3.7125    0.0000 R#  0  0  0  0  0  0  0  0  0  0  0  0
    1.4289   -2.4750    0.0000 R#  0  0  0  0  0  0  0  0  0  0  0  0
 16  1  1  0
  2  1  1  0
  2  3  1  6
  3  4  1  0
  4  5  2  0
  5  6  1  0
  6  7  2  0
  7  8  1  0
  8  9  2  0
  9 10  1  0
 10 11  2  0
 11 12  1  0
  7 12  1  0
 12 13  2  0
  4 13  1  0
  2 14  1  0
 14 17  1  0
 14 15  2  0
M  RGP  2  16   1  17   2
V   16 *
V   17 *
M  END
>  <m_name>  (424)
D-3-naphthylalanine

>  <symbol>  (424)
D_2Nal

>  <m_abbr>  (424)
D_2Nal

>  <m_type>  (424)
aa

>  <m_subtype>  (424)
non-natural

>  <m_Rgroups>  (424)
H,OH,None,None

>  <m_RgroupIdx>  (424)
15,16,None,None

>  <m_attachmentPointIdx>  (424)
0,13,None,None

>  <natAnalog>  (424)
A

>  <pdbName>  (424)
D2I

$$$$

     RDKit          2D

 12 12  0  0  0  0  0  0  0  0999 V2000
   -0.1467    3.1768    0.0000 N   0  0  0  0  0  0  0  0  0  0  0  0
   -0.1467    2.3518    0.0000 C   0  0  0  0  0  0  0  0  0  0  0  0
    0.5678    1.9393    0.0000 C   0  0  0  0  0  0  0  0  0  0  0  0
    0.5678    1.1143    0.0000 C   0  0  0  0  0  0  0  0  0  0  0  0
    1.2352    0.6294    0.0000 C   0  0  0  0  0  0  0  0  0  0  0  0
    0.9803   -0.1553    0.0000 C   0  0  0  0  0  0  0  0  0  0  0  0
    0.1553   -0.1553    0.0000 C   0  0  0  0  0  0  0  0  0  0  0  0
   -0.0997    0.6294    0.0000 S   0  0  0  0  0  0  0  0  0  0  0  0
   -0.8612    1.9393    0.0000 C   0  0  0  0  0  0  0  0  0  0  0  0
   -1.5757    2.3518    0.0000 O   0  0  0  0  0  0  0  0  0  0  0  0
   -0.8612    3.5893    0.0000 R#  0  0  0  0  0  0  0  0  0  0  0  0
   -0.8612    1.1143    0.0000 R#  0  0  0  0  0  0  0  0  0  0  0  0
 11  1  1  0
  2  1  1  0
  2  3  1  6
  3  4  1  0
  4  5  2  0
  5  6  1  0
  6  7  2  0
  7  8  1  0
  4  8  1  0
  2  9  1  0
  9 12  1  0
  9 10  2  0
M  RGP  2  11   1  12   2
V   11 *
V   12 *
M  END
>  <m_name>  (425)
D-3-thienylalanine

>  <symbol>  (425)
D_2Thi

>  <m_abbr>  (425)
D_2Thi

>  <m_type>  (425)
aa

>  <m_subtype>  (425)
non-natural

>  <m_Rgroups>  (425)
H,OH,None,None

>  <m_RgroupIdx>  (425)
10,11,None,None

>  <m_attachmentPointIdx>  (425)
0,8,None,None

>  <natAnalog>  (425)
A

>  <pdbName>  (425)
DJA

$$$$

     RDKit          2D

 10 10  0  0  0  0  0  0  0  0999 V2000
    0.5678    1.9393    0.0000 O   0  0  0  0  0  0  0  0  0  0  0  0
    0.5678    1.1143    0.0000 C   0  0  0  0  0  0  0  0  0  0  0  0
    1.2352    0.6294    0.0000 C   0  0  0  0  0  0  0  0  0  0  0  0
    0.9803   -0.1553    0.0000 C   0  0  0  0  0  0  0  0  0  0  0  0
    0.1553   -0.1553    0.0000 N   0  0  0  0  0  0  0  0  0  0  0  0
   -0.0997    0.6294    0.0000 C   0  0  0  0  0  0  0  0  0  0  0  0
    1.4652   -0.8227    0.0000 C   0  0  0  0  0  0  0  0  0  0  0  0
    1.1296   -1.5764    0.0000 O   0  0  0  0  0  0  0  0  0  0  0  0
   -0.3297   -0.8227    0.0000 R#  0  0  0  0  0  0  0  0  0  0  0  0
    2.2857   -0.7365    0.0000 R#  0  0  0  0  0  0  0  0  0  0  0  0
  2  1  1  6
  2  3  1  0
  4  3  1  0
  4  5  1  0
  5  9  1  0
  5  6  1  0
  2  6  1  0
  4  7  1  6
  7 10  1  0
  7  8  2  0
M  RGP  2   9   1  10   2
V    9 *
V   10 *
M  END
>  <m_name>  (426)
D-allo-4-hydroxyproline

>  <symbol>  (426)
D_aHyp

>  <m_abbr>  (426)
D_aHyp

>  <m_type>  (426)
aa

>  <m_subtype>  (426)
non-natural

>  <m_Rgroups>  (426)
H,OH,None,None

>  <m_RgroupIdx>  (426)
8,9,None,None

>  <m_attachmentPointIdx>  (426)
4,6,None,None

>  <natAnalog>  (426)
P

>  <pdbName>  (426)
DJG

$$$$

     RDKit          2D

 10  9  0  0  0  0  0  0  0  0999 V2000
    0.5230    0.5230    0.0000 C   0  0  0  0  0  0  0  0  0  0  0  0
    1.2375    0.1105    0.0000 C   0  0  0  0  0  0  0  0  0  0  0  0
    1.2375   -0.7145    0.0000 C   0  0  0  0  0  0  0  0  0  0  0  0
    0.5230   -1.1270    0.0000 C   0  0  0  0  0  0  0  0  0  0  0  0
    1.9520   -1.1270    0.0000 C   0  0  0  0  0  0  0  0  0  0  0  0
    1.9520   -1.9520    0.0000 N   0  0  0  0  0  0  0  0  0  0  0  0
    2.6664   -0.7145    0.0000 C   0  0  0  0  0  0  0  0  0  0  0  0
    3.3809   -1.1270    0.0000 O   0  0  0  0  0  0  0  0  0  0  0  0
    2.6664   -2.3645    0.0000 R#  0  0  0  0  0  0  0  0  0  0  0  0
    2.6664    0.1105    0.0000 R#  0  0  0  0  0  0  0  0  0  0  0  0
  1  2  1  0
  3  2  1  0
  3  4  1  1
  3  5  1  0
  5  6  1  6
  6  9  1  0
  5  7  1  0
  7 10  1  0
  7  8  2  0
M  RGP  2   9   1  10   2
V    9 *
V   10 *
M  END
>  <m_name>  (427)
D-allo-Isoleucine

>  <symbol>  (427)
D_aIle

>  <m_abbr>  (427)
D_aIle

>  <m_type>  (427)
aa

>  <m_subtype>  (427)
non-natural

>  <m_Rgroups>  (427)
H,OH,None,None

>  <m_RgroupIdx>  (427)
8,9,None,None

>  <m_attachmentPointIdx>  (427)
5,6,None,None

>  <natAnalog>  (427)
I

>  <pdbName>  (427)
DJI

$$$$

     RDKit          2D

 12 12  0  0  0  0  0  0  0  0999 V2000
    0.0000    2.4750    0.0000 N   0  0  0  0  0  0  0  0  0  0  0  0
    0.7145    2.0625    0.0000 C   0  0  0  0  0  0  0  0  0  0  0  0
    1.4289    2.4750    0.0000 C   0  0  0  0  0  0  0  0  0  0  0  0
    1.4289    3.3000    0.0000 O   0  0  0  0  0  0  0  0  0  0  0  0
    0.7145    1.2375    0.0000 C   0  0  0  0  0  0  0  0  0  0  0  0
    1.4289    0.8250    0.0000 C   0  0  0  0  0  0  0  0  0  0  0  0
    1.4289    0.0000    0.0000 C   0  0  0  0  0  0  0  0  0  0  0  0
    0.7145   -0.4125    0.0000 C   0  0  0  0  0  0  0  0  0  0  0  0
    0.0000    0.0000    0.0000 C   0  0  0  0  0  0  0  0  0  0  0  0
    0.0000    0.8250    0.0000 C   0  0  0  0  0  0  0  0  0  0  0  0
    0.0000    3.3000    0.0000 R#  0  0  0  0  0  0  0  0  0  0  0  0
    2.1434    2.0625    0.0000 R#  0  0  0  0  0  0  0  0  0  0  0  0
 11  1  1  0
  2  1  1  1
  2  3  1  0
  3 12  1  0
  3  4  2  0
  2  5  1  0
  5  6  2  0
  6  7  1  0
  7  8  2  0
  8  9  1  0
  9 10  2  0
  5 10  1  0
M  RGP  2  11   1  12   2
V   11 *
V   12 *
M  END
>  <m_name>  (428)
D-2-phenylglycine

>  <symbol>  (428)
D_Phg

>  <m_abbr>  (428)
D_Phg

>  <m_type>  (428)
aa

>  <m_subtype>  (428)
non-natural

>  <m_Rgroups>  (428)
H,OH,None,None

>  <m_RgroupIdx>  (428)
10,11,None,None

>  <m_attachmentPointIdx>  (428)
0,2,None,None

>  <natAnalog>  (428)
G

>  <pdbName>  (428)
DJ5

$$$$

     RDKit          2D

 12 11  0  0  0  0  0  0  0  0999 V2000
   -0.8250   -2.8579    0.0000 C   0  0  0  0  0  0  0  0  0  0  0  0
   -0.4125   -2.1434    0.0000 C   0  0  0  0  0  0  0  0  0  0  0  0
    0.3020   -2.5559    0.0000 C   0  0  0  0  0  0  0  0  0  0  0  0
   -1.1270   -1.7309    0.0000 C   0  0  0  0  0  0  0  0  0  0  0  0
    0.0000   -1.4289    0.0000 O   0  0  0  0  0  0  0  0  0  0  0  0
    0.8250   -1.4289    0.0000 C   0  0  0  0  0  0  0  0  0  0  0  0
    1.2375   -0.7145    0.0000 C   0  0  0  0  0  0  0  0  0  0  0  0
    2.0625   -0.7145    0.0000 N   0  0  0  0  0  0  0  0  0  0  0  0
    0.8250    0.0000    0.0000 C   0  0  0  0  0  0  0  0  0  0  0  0
    0.0000    0.0000    0.0000 O   0  0  0  0  0  0  0  0  0  0  0  0
    2.4750    0.0000    0.0000 R#  0  0  0  0  0  0  0  0  0  0  0  0
    1.2375    0.7145    0.0000 R#  0  0  0  0  0  0  0  0  0  0  0  0
  1  2  1  0
  2  3  1  0
  2  4  1  0
  2  5  1  0
  5  6  1  0
  7  6  1  6
  7  8  1  0
  8 11  1  0
  7  9  1  0
  9 12  1  0
  9 10  2  0
M  RGP  2  11   1  12   2
V   11 *
V   12 *
M  END
>  <m_name>  (429)
O-tert-Butyl-D-serine

>  <symbol>  (429)
D_Ser_tBu

>  <m_abbr>  (429)
D_Ser_tBu

>  <m_type>  (429)
aa

>  <m_subtype>  (429)
non-natural

>  <m_Rgroups>  (429)
H,OH,None,None

>  <m_RgroupIdx>  (429)
10,11,None,None

>  <m_attachmentPointIdx>  (429)
7,8,None,None

>  <natAnalog>  (429)
S

>  <pdbName>  (429)
DJ7

$$$$

     RDKit          2D

 11 10  0  0  0  0  0  0  0  0999 V2000
   -0.8250   -1.4289    0.0000 O   0  0  0  0  0  0  0  0  0  0  0  0
    0.0000   -1.4289    0.0000 S   0  0  0  0  0  0  0  0  0  0  0  0
    0.0000   -2.2539    0.0000 O   0  0  0  0  0  0  0  0  0  0  0  0
    0.0000   -0.6039    0.0000 O   0  0  0  0  0  0  0  0  0  0  0  0
    0.8250   -1.4289    0.0000 C   0  0  0  0  0  0  0  0  0  0  0  0
    1.2375   -0.7145    0.0000 C   0  0  0  0  0  0  0  0  0  0  0  0
    2.0625   -0.7145    0.0000 N   0  0  0  0  0  0  0  0  0  0  0  0
    0.8250    0.0000    0.0000 C   0  0  0  0  0  0  0  0  0  0  0  0
    0.0000    0.0000    0.0000 O   0  0  0  0  0  0  0  0  0  0  0  0
    2.4750    0.0000    0.0000 R#  0  0  0  0  0  0  0  0  0  0  0  0
    1.2375    0.7145    0.0000 R#  0  0  0  0  0  0  0  0  0  0  0  0
  1  2  1  0
  2  3  2  0
  2  4  2  0
  2  5  1  0
  6  5  1  1
  6  7  1  0
  7 10  1  0
  6  8  1  0
  8 11  1  0
  8  9  2  0
M  RGP  2  10   1  11   2
V   10 *
V   11 *
M  END
>  <m_name>  (430)
3-Sulfoalanine

>  <symbol>  (430)
Cya

>  <m_abbr>  (430)
Cya

>  <m_type>  (430)
aa

>  <m_subtype>  (430)
non-natural

>  <m_Rgroups>  (430)
H,OH,None,None

>  <m_RgroupIdx>  (430)
9,10,None,None

>  <m_attachmentPointIdx>  (430)
6,7,None,None

>  <natAnalog>  (430)
A

>  <pdbName>  (430)
CY2

$$$$

     RDKit          2D

 14 13  0  0  0  0  0  0  0  0999 V2000
   -0.9059    2.1730    0.0000 C   0  0  0  0  0  0  0  0  0  0  0  0
   -0.1914    1.7605    0.0000 N   0  0  0  0  0  0  0  0  0  0  0  0
   -0.6039    1.0461    0.0000 C   0  0  0  0  0  0  0  0  0  0  0  0
    0.2211    2.4750    0.0000 C   0  0  0  0  0  0  0  0  0  0  0  0
    0.5230    1.3480    0.0000 C   0  0  0  0  0  0  0  0  0  0  0  0
    0.5230    0.5230    0.0000 C   0  0  0  0  0  0  0  0  0  0  0  0
    1.2375    0.1105    0.0000 C   0  0  0  0  0  0  0  0  0  0  0  0
    1.2375   -0.7145    0.0000 C   0  0  0  0  0  0  0  0  0  0  0  0
    1.9520   -1.1270    0.0000 C   0  0  0  0  0  0  0  0  0  0  0  0
    1.9520   -1.9520    0.0000 N   0  0  0  0  0  0  0  0  0  0  0  0
    2.6664   -0.7145    0.0000 C   0  0  0  0  0  0  0  0  0  0  0  0
    3.3809   -1.1270    0.0000 O   0  0  0  0  0  0  0  0  0  0  0  0
    2.6664   -2.3645    0.0000 R#  0  0  0  0  0  0  0  0  0  0  0  0
    2.6664    0.1105    0.0000 R#  0  0  0  0  0  0  0  0  0  0  0  0
  1  2  1  0
  2  3  1  0
  2  4  1  0
  2  5  1  0
  5  6  1  0
  6  7  1  0
  7  8  1  0
  9  8  1  1
  9 10  1  0
 10 13  1  0
  9 11  1  0
 11 14  1  0
 11 12  2  0
M  CHG  1   2   1
M  RGP  2  13   1  14   2
V   13 *
V   14 *
M  END
>  <m_name>  (431)
Epsilon-N-trimethyllysine

>  <symbol>  (431)
Lys_Me3

>  <m_abbr>  (431)
Lys_Me3

>  <m_type>  (431)
aa

>  <m_subtype>  (431)
non-natural

>  <m_Rgroups>  (431)
H,OH,None,None

>  <m_RgroupIdx>  (431)
12,13,None,None

>  <m_attachmentPointIdx>  (431)
9,10,None,None

>  <natAnalog>  (431)
K

>  <pdbName>  (431)
LYY

$$$$

     RDKit          2D

 11 10  0  0  0  0  0  0  0  0999 V2000
    1.6500    0.0000    0.0000 C   0  0  0  0  0  0  0  0  0  0  0  0
    1.2375    0.7145    0.0000 C   0  0  0  0  0  0  0  0  0  0  0  0
    0.8250    1.4289    0.0000 C   0  0  0  0  0  0  0  0  0  0  0  0
    0.5230    0.3020    0.0000 S   0  0  0  0  0  0  0  0  0  0  0  0
    1.9520    1.1270    0.0000 C   0  0  0  0  0  0  0  0  0  0  0  0
    2.6664    0.7145    0.0000 N   0  0  0  0  0  0  0  0  0  0  0  0
    1.9520    1.9520    0.0000 C   0  0  0  0  0  0  0  0  0  0  0  0
    1.2375    2.3645    0.0000 O   0  0  0  0  0  0  0  0  0  0  0  0
   -0.1914    0.7145    0.0000 R#  0  0  0  0  0  0  0  0  0  0  0  0
    3.3809    1.1270    0.0000 R#  0  0  0  0  0  0  0  0  0  0  0  0
    2.6664    2.3645    0.0000 R#  0  0  0  0  0  0  0  0  0  0  0  0
  1  2  1  0
  2  3  1  0
  2  4  1  0
  4  9  1  0
  5  2  1  0
  5  6  1  1
  6 10  1  0
  5  7  1  0
  7 11  1  0
  7  8  2  0
M  RGP  3   9   3  10   1  11   2
V    9 *
V   10 *
V   11 *
M  END
>  <m_name>  (432)
Penicillamine (3-mercaptovaline)

>  <symbol>  (432)
Pen

>  <m_abbr>  (432)
Pen

>  <m_type>  (432)
aa

>  <m_subtype>  (432)
non-natural

>  <m_Rgroups>  (432)
H,OH,H,None

>  <m_RgroupIdx>  (432)
9,10,8,None

>  <m_attachmentPointIdx>  (432)
5,6,3,None

>  <natAnalog>  (432)
V

>  <pdbName>  (432)
PES

$$$$

     RDKit          2D

 14 14  0  0  0  0  0  0  0  0999 V2000
    0.7145    2.0625    0.0000 C   0  0  0  0  0  0  0  0  0  0  0  0
    0.7145    1.2375    0.0000 C   0  0  0  0  0  0  0  0  0  0  0  0
    1.4289    0.8250    0.0000 C   0  0  0  0  0  0  0  0  0  0  0  0
    1.4289    0.0000    0.0000 C   0  0  0  0  0  0  0  0  0  0  0  0
    0.7145   -0.4125    0.0000 C   0  0  0  0  0  0  0  0  0  0  0  0
    0.7145   -1.2375    0.0000 C   0  0  0  0  0  0  0  0  0  0  0  0
    1.4289   -1.6500    0.0000 C   0  0  0  0  0  0  0  0  0  0  0  0
    1.4289   -2.4750    0.0000 N   0  0  0  0  0  0  0  0  0  0  0  0
    2.1434   -1.2375    0.0000 C   0  0  0  0  0  0  0  0  0  0  0  0
    2.1434   -0.4125    0.0000 O   0  0  0  0  0  0  0  0  0  0  0  0
    0.0000    0.0000    0.0000 C   0  0  0  0  0  0  0  0  0  0  0  0
    0.0000    0.8250    0.0000 C   0  0  0  0  0  0  0  0  0  0  0  0
    2.1434   -2.8875    0.0000 R#  0  0  0  0  0  0  0  0  0  0  0  0
    2.8579   -1.6500    0.0000 R#  0  0  0  0  0  0  0  0  0  0  0  0
  1  2  1  0
  2  3  2  0
  3  4  1  0
  4  5  2  0
  5  6  1  0
  7  6  1  1
  7  8  1  0
  8 13  1  0
  7  9  1  0
  9 14  1  0
  9 10  2  0
  5 11  1  0
 11 12  2  0
  2 12  1  0
M  RGP  2  13   1  14   2
V   13 *
V   14 *
M  END
>  <m_name>  (433)
p-Methylphenylalanine

>  <symbol>  (433)
Phe_4Me

>  <m_abbr>  (433)
Phe_4Me

>  <m_type>  (433)
aa

>  <m_subtype>  (433)
non-natural

>  <m_Rgroups>  (433)
H,OH,None,None

>  <m_RgroupIdx>  (433)
12,13,None,None

>  <m_attachmentPointIdx>  (433)
7,8,None,None

>  <natAnalog>  (433)
F

>  <pdbName>  (433)
PGB

$$$$

     RDKit          2D

 15 15  0  0  0  0  0  0  0  0999 V2000
    3.1895   -2.6664    0.0000 N   0  0  0  0  0  0  0  0  0  0  0  0
    2.7770   -1.9520    0.0000 C   0  0  0  0  0  0  0  0  0  0  0  0
    1.9520   -1.9520    0.0000 C   0  0  0  0  0  0  0  0  0  0  0  0
    1.5395   -1.2375    0.0000 O   0  0  0  0  0  0  0  0  0  0  0  0
    0.7145   -1.2375    0.0000 C   0  0  0  0  0  0  0  0  0  0  0  0
    0.3020   -0.5230    0.0000 C   0  0  0  0  0  0  0  0  0  0  0  0
   -0.5230   -0.5230    0.0000 C   0  0  0  0  0  0  0  0  0  0  0  0
   -0.9355    0.1914    0.0000 C   0  0  0  0  0  0  0  0  0  0  0  0
   -0.5230    0.9059    0.0000 C   0  0  0  0  0  0  0  0  0  0  0  0
    0.3020    0.9059    0.0000 C   0  0  0  0  0  0  0  0  0  0  0  0
    0.7145    0.1914    0.0000 C   0  0  0  0  0  0  0  0  0  0  0  0
    3.1895   -1.2375    0.0000 C   0  0  0  0  0  0  0  0  0  0  0  0
    4.0145   -1.2375    0.0000 O   0  0  0  0  0  0  0  0  0  0  0  0
    4.0145   -2.6664    0.0000 R#  0  0  0  0  0  0  0  0  0  0  0  0
    2.7770   -0.5230    0.0000 R#  0  0  0  0  0  0  0  0  0  0  0  0
 14  1  1  0
  2  1  1  0
  2  3  1  1
  3  4  1  0
  4  5  1  0
  5  6  1  0
  6  7  2  0
  7  8  1  0
  8  9  2  0
  9 10  1  0
 10 11  2  0
  6 11  1  0
  2 12  1  0
 12 15  1  0
 12 13  2  0
M  RGP  2  14   1  15   2
V   14 *
V   15 *
M  END
>  <m_name>  (434)
O-Benzyl-L-serine

>  <symbol>  (434)
Ser_Bn

>  <m_abbr>  (434)
Ser_Bn

>  <m_type>  (434)
aa

>  <m_subtype>  (434)
non-natural

>  <m_Rgroups>  (434)
H,OH,None,None

>  <m_RgroupIdx>  (434)
13,14,None,None

>  <m_attachmentPointIdx>  (434)
0,11,None,None

>  <natAnalog>  (434)
S

>  <pdbName>  (434)
SEQ

$$$$

     RDKit          2D

 18 18  0  0  0  0  0  0  0  0999 V2000
   -0.7145    2.8875    0.0000 C   0  0  0  0  0  0  0  0  0  0  0  0
    0.0000    2.4750    0.0000 C   0  0  0  0  0  0  0  0  0  0  0  0
   -0.4125    1.7605    0.0000 C   0  0  0  0  0  0  0  0  0  0  0  0
    0.4125    3.1895    0.0000 C   0  0  0  0  0  0  0  0  0  0  0  0
    0.7145    2.0625    0.0000 O   0  0  0  0  0  0  0  0  0  0  0  0
    0.7145    1.2375    0.0000 C   0  0  0  0  0  0  0  0  0  0  0  0
    1.4289    0.8250    0.0000 C   0  0  0  0  0  0  0  0  0  0  0  0
    1.4289    0.0000    0.0000 C   0  0  0  0  0  0  0  0  0  0  0  0
    0.7145   -0.4125    0.0000 C   0  0  0  0  0  0  0  0  0  0  0  0
    0.7145   -1.2375    0.0000 C   0  0  0  0  0  0  0  0  0  0  0  0
    1.4289   -1.6500    0.0000 C   0  0  0  0  0  0  0  0  0  0  0  0
    1.4289   -2.4750    0.0000 N   0  0  0  0  0  0  0  0  0  0  0  0
    2.1434   -1.2375    0.0000 C   0  0  0  0  0  0  0  0  0  0  0  0
    2.1434   -0.4125    0.0000 O   0  0  0  0  0  0  0  0  0  0  0  0
    0.0000    0.0000    0.0000 C   0  0  0  0  0  0  0  0  0  0  0  0
    0.0000    0.8250    0.0000 C   0  0  0  0  0  0  0  0  0  0  0  0
    2.1434   -2.8875    0.0000 R#  0  0  0  0  0  0  0  0  0  0  0  0
    2.8579   -1.6500    0.0000 R#  0  0  0  0  0  0  0  0  0  0  0  0
  1  2  1  0
  2  3  1  0
  2  4  1  0
  2  5  1  0
  5  6  1  0
  6  7  2  0
  7  8  1  0
  8  9  2  0
  9 10  1  0
 11 10  1  1
 11 12  1  0
 12 17  1  0
 11 13  1  0
 13 18  1  0
 13 14  2  0
  9 15  1  0
 15 16  2  0
  6 16  1  0
M  RGP  2  17   1  18   2
V   17 *
V   18 *
M  END
>  <m_name>  (435)
O-tert-Butyl-L-tyrosine

>  <symbol>  (435)
Tyr_tBu

>  <m_abbr>  (435)
Tyr_tBu

>  <m_type>  (435)
aa

>  <m_subtype>  (435)
non-natural

>  <m_Rgroups>  (435)
H,OH,None,None

>  <m_RgroupIdx>  (435)
16,17,None,None

>  <m_attachmentPointIdx>  (435)
11,12,None,None

>  <natAnalog>  (435)
Y

>  <pdbName>  (435)
TYK

$$$$

     RDKit          2D

 17 18  0  0  0  0  0  0  0  0999 V2000
   -0.7145   -2.8875    0.0000 N   0  0  0  0  0  0  0  0  0  0  0  0
    0.0000   -2.4750    0.0000 C   0  0  0  0  0  0  0  0  0  0  0  0
    0.0000   -1.6500    0.0000 C   0  0  0  0  0  0  0  0  0  0  0  0
    0.7145   -1.2375    0.0000 C   0  0  0  0  0  0  0  0  0  0  0  0
    0.7145   -0.4125    0.0000 C   0  0  0  0  0  0  0  0  0  0  0  0
    1.4289    0.0000    0.0000 C   0  0  0  0  0  0  0  0  0  0  0  0
    2.1434   -0.4125    0.0000 C   0  0  0  0  0  0  0  0  0  0  0  0
    2.8579    0.0000    0.0000 C   0  0  0  0  0  0  0  0  0  0  0  0
    3.5724   -0.4125    0.0000 C   0  0  0  0  0  0  0  0  0  0  0  0
    3.5724   -1.2375    0.0000 C   0  0  0  0  0  0  0  0  0  0  0  0
    2.8579   -1.6500    0.0000 C   0  0  0  0  0  0  0  0  0  0  0  0
    2.1434   -1.2375    0.0000 C   0  0  0  0  0  0  0  0  0  0  0  0
    1.4289   -1.6500    0.0000 C   0  0  0  0  0  0  0  0  0  0  0  0
    0.7145   -2.8875    0.0000 C   0  0  0  0  0  0  0  0  0  0  0  0
    0.7145   -3.7125    0.0000 O   0  0  0  0  0  0  0  0  0  0  0  0
   -0.7145   -3.7125    0.0000 R#  0  0  0  0  0  0  0  0  0  0  0  0
    1.4289   -2.4750    0.0000 R#  0  0  0  0  0  0  0  0  0  0  0  0
 16  1  1  0
  2  1  1  0
  2  3  1  1
  3  4  1  0
  4  5  2  0
  5  6  1  0
  6  7  2  0
  7  8  1  0
  8  9  2  0
  9 10  1  0
 10 11  2  0
 11 12  1  0
  7 12  1  0
 12 13  2  0
  4 13  1  0
  2 14  1  0
 14 17  1  0
 14 15  2  0
M  RGP  2  16   1  17   2
V   16 *
V   17 *
M  END
>  <m_name>  (436)
3-Naphthylalanine

>  <symbol>  (436)
2Nal

>  <m_abbr>  (436)
2Nal

>  <m_type>  (436)
aa

>  <m_subtype>  (436)
non-natural

>  <m_Rgroups>  (436)
H,OH,None,None

>  <m_RgroupIdx>  (436)
15,16,None,None

>  <m_attachmentPointIdx>  (436)
0,13,None,None

>  <natAnalog>  (436)
A

>  <pdbName>  (436)
2NN

$$$$

     RDKit          2D

 12 12  0  0  0  0  0  0  0  0999 V2000
   -0.1467    3.1768    0.0000 N   0  0  0  0  0  0  0  0  0  0  0  0
   -0.1467    2.3518    0.0000 C   0  0  0  0  0  0  0  0  0  0  0  0
    0.5678    1.9393    0.0000 C   0  0  0  0  0  0  0  0  0  0  0  0
    0.5678    1.1143    0.0000 C   0  0  0  0  0  0  0  0  0  0  0  0
    1.2352    0.6294    0.0000 C   0  0  0  0  0  0  0  0  0  0  0  0
    0.9803   -0.1553    0.0000 C   0  0  0  0  0  0  0  0  0  0  0  0
    0.1553   -0.1553    0.0000 C   0  0  0  0  0  0  0  0  0  0  0  0
   -0.0997    0.6294    0.0000 S   0  0  0  0  0  0  0  0  0  0  0  0
   -0.8612    1.9393    0.0000 C   0  0  0  0  0  0  0  0  0  0  0  0
   -1.5757    2.3518    0.0000 O   0  0  0  0  0  0  0  0  0  0  0  0
   -0.8612    3.5893    0.0000 R#  0  0  0  0  0  0  0  0  0  0  0  0
   -0.8612    1.1143    0.0000 R#  0  0  0  0  0  0  0  0  0  0  0  0
 11  1  1  0
  2  1  1  0
  2  3  1  1
  3  4  1  0
  4  5  2  0
  5  6  1  0
  6  7  2  0
  7  8  1  0
  4  8  1  0
  2  9  1  0
  9 12  1  0
  9 10  2  0
M  RGP  2  11   1  12   2
V   11 *
V   12 *
M  END
>  <m_name>  (437)
3-thienylalanine

>  <symbol>  (437)
Thi

>  <m_abbr>  (437)
Thi

>  <m_type>  (437)
aa

>  <m_subtype>  (437)
non-natural

>  <m_Rgroups>  (437)
H,OH,None,None

>  <m_RgroupIdx>  (437)
10,11,None,None

>  <m_attachmentPointIdx>  (437)
0,8,None,None

>  <natAnalog>  (437)
A

>  <pdbName>  (437)
TAI

$$$$

     RDKit          2D

 10 10  0  0  0  0  0  0  0  0999 V2000
    0.5678    1.9393    0.0000 O   0  0  0  0  0  0  0  0  0  0  0  0
    0.5678    1.1143    0.0000 C   0  0  0  0  0  0  0  0  0  0  0  0
    1.2352    0.6294    0.0000 C   0  0  0  0  0  0  0  0  0  0  0  0
    0.9803   -0.1553    0.0000 C   0  0  0  0  0  0  0  0  0  0  0  0
    0.1553   -0.1553    0.0000 N   0  0  0  0  0  0  0  0  0  0  0  0
   -0.0997    0.6294    0.0000 C   0  0  0  0  0  0  0  0  0  0  0  0
    1.4652   -0.8227    0.0000 C   0  0  0  0  0  0  0  0  0  0  0  0
    1.1296   -1.5764    0.0000 O   0  0  0  0  0  0  0  0  0  0  0  0
   -0.3297   -0.8227    0.0000 R#  0  0  0  0  0  0  0  0  0  0  0  0
    2.2857   -0.7365    0.0000 R#  0  0  0  0  0  0  0  0  0  0  0  0
  2  1  1  1
  2  3  1  0
  4  3  1  0
  4  5  1  0
  5  9  1  0
  5  6  1  0
  2  6  1  0
  4  7  1  1
  7 10  1  0
  7  8  2  0
M  RGP  2   9   1  10   2
V    9 *
V   10 *
M  END
>  <m_name>  (438)
L-allo-4-hydroxyproline

>  <symbol>  (438)
aHyp

>  <m_abbr>  (438)
aHyp

>  <m_type>  (438)
aa

>  <m_subtype>  (438)
non-natural

>  <m_Rgroups>  (438)
H,OH,None,None

>  <m_RgroupIdx>  (438)
8,9,None,None

>  <m_attachmentPointIdx>  (438)
4,6,None,None

>  <natAnalog>  (438)
P

>  <pdbName>  (438)
AHJ

$$$$

     RDKit          2D

 10  9  0  0  0  0  0  0  0  0999 V2000
    0.4125   -2.1434    0.0000 C   0  0  0  0  0  0  0  0  0  0  0  0
    0.8250   -1.4289    0.0000 C   0  0  0  0  0  0  0  0  0  0  0  0
    1.5395   -1.8414    0.0000 C   0  0  0  0  0  0  0  0  0  0  0  0
    0.1105   -1.0164    0.0000 C   0  0  0  0  0  0  0  0  0  0  0  0
    1.2375   -0.7145    0.0000 C   0  0  0  0  0  0  0  0  0  0  0  0
    2.0625   -0.7145    0.0000 N   0  0  0  0  0  0  0  0  0  0  0  0
    0.8250    0.0000    0.0000 C   0  0  0  0  0  0  0  0  0  0  0  0
    0.0000    0.0000    0.0000 O   0  0  0  0  0  0  0  0  0  0  0  0
    2.4750    0.0000    0.0000 R#  0  0  0  0  0  0  0  0  0  0  0  0
    1.2375    0.7145    0.0000 R#  0  0  0  0  0  0  0  0  0  0  0  0
  1  2  1  0
  2  3  1  0
  2  4  1  0
  5  2  1  0
  5  6  1  1
  6  9  1  0
  5  7  1  0
  7 10  1  0
  7  8  2  0
M  RGP  2   9   1  10   2
V    9 *
V   10 *
M  END
>  <m_name>  (439)
3-Methylvaline

>  <symbol>  (439)
Ala_tBu

>  <m_abbr>  (439)
Ala_tBu

>  <m_type>  (439)
aa

>  <m_subtype>  (439)
non-natural

>  <m_Rgroups>  (439)
H,OH,None,None

>  <m_RgroupIdx>  (439)
8,9,None,None

>  <m_attachmentPointIdx>  (439)
5,6,None,None

>  <natAnalog>  (439)
A

>  <pdbName>  (439)
AAJ

$$$$

     RDKit          2D

 14 14  0  0  0  0  0  0  0  0999 V2000
    2.1434   -0.4125    0.0000 N   0  0  0  0  0  0  0  0  0  0  0  0
    2.1434   -1.2375    0.0000 C   0  0  0  0  0  0  0  0  0  0  0  0
    1.4289   -1.6500    0.0000 C   0  0  0  0  0  0  0  0  0  0  0  0
    1.4289   -2.4750    0.0000 C   0  0  0  0  0  0  0  0  0  0  0  0
    0.7145   -2.8875    0.0000 C   0  0  0  0  0  0  0  0  0  0  0  0
    0.7145   -3.7125    0.0000 C   0  0  0  0  0  0  0  0  0  0  0  0
    0.0000   -4.1250    0.0000 C   0  0  0  0  0  0  0  0  0  0  0  0
   -0.7145   -3.7125    0.0000 C   0  0  0  0  0  0  0  0  0  0  0  0
   -0.7145   -2.8875    0.0000 C   0  0  0  0  0  0  0  0  0  0  0  0
    0.0000   -2.4750    0.0000 C   0  0  0  0  0  0  0  0  0  0  0  0
    2.8579   -1.6500    0.0000 C   0  0  0  0  0  0  0  0  0  0  0  0
    2.8579   -2.4750    0.0000 O   0  0  0  0  0  0  0  0  0  0  0  0
    2.8579    0.0000    0.0000 R#  0  0  0  0  0  0  0  0  0  0  0  0
    3.5724   -1.2375    0.0000 R#  0  0  0  0  0  0  0  0  0  0  0  0
 13  1  1  0
  2  1  1  0
  2  3  1  6
  3  4  1  0
  4  5  1  0
  5  6  2  0
  6  7  1  0
  7  8  2  0
  8  9  1  0
  9 10  2  0
  5 10  1  0
  2 11  1  0
 11 14  1  0
 11 12  2  0
M  RGP  2  13   1  14   2
V   13 *
V   14 *
M  END
>  <m_name>  (440)
Homophenylalanine

>  <symbol>  (440)
hPhe

>  <m_abbr>  (440)
hPhe

>  <m_type>  (440)
aa

>  <m_subtype>  (440)
non-natural

>  <m_Rgroups>  (440)
H,OH,None,None

>  <m_RgroupIdx>  (440)
12,13,None,None

>  <m_attachmentPointIdx>  (440)
0,10,None,None

>  <natAnalog>  (440)
F

>  <pdbName>  (440)
HP9

$$$$

     RDKit          2D

 17 18  0  0  0  0  0  0  0  0999 V2000
    0.7145   -3.7125    0.0000 N   0  0  0  0  0  0  0  0  0  0  0  0
    0.7145   -2.8875    0.0000 C   0  0  0  0  0  0  0  0  0  0  0  0
    1.4289   -2.4750    0.0000 C   0  0  0  0  0  0  0  0  0  0  0  0
    1.4289   -1.6500    0.0000 C   0  0  0  0  0  0  0  0  0  0  0  0
    0.7145   -1.2375    0.0000 C   0  0  0  0  0  0  0  0  0  0  0  0
    0.7145   -0.4125    0.0000 C   0  0  0  0  0  0  0  0  0  0  0  0
    1.4289    0.0000    0.0000 C   0  0  0  0  0  0  0  0  0  0  0  0
    2.1434   -0.4125    0.0000 C   0  0  0  0  0  0  0  0  0  0  0  0
    2.8579    0.0000    0.0000 C   0  0  0  0  0  0  0  0  0  0  0  0
    3.5724   -0.4125    0.0000 C   0  0  0  0  0  0  0  0  0  0  0  0
    3.5724   -1.2375    0.0000 C   0  0  0  0  0  0  0  0  0  0  0  0
    2.8579   -1.6500    0.0000 C   0  0  0  0  0  0  0  0  0  0  0  0
    2.1434   -1.2375    0.0000 C   0  0  0  0  0  0  0  0  0  0  0  0
    0.0000   -2.4750    0.0000 C   0  0  0  0  0  0  0  0  0  0  0  0
   -0.7145   -2.8875    0.0000 O   0  0  0  0  0  0  0  0  0  0  0  0
    0.0000   -4.1250    0.0000 R#  0  0  0  0  0  0  0  0  0  0  0  0
    0.0000   -1.6500    0.0000 R#  0  0  0  0  0  0  0  0  0  0  0  0
 16  1  1  0
  2  1  1  0
  2  3  1  1
  3  4  1  0
  4  5  2  0
  5  6  1  0
  6  7  2  0
  7  8  1  0
  8  9  2  0
  9 10  1  0
 10 11  2  0
 11 12  1  0
 12 13  2  0
  4 13  1  0
  8 13  1  0
  2 14  1  0
 14 17  1  0
 14 15  2  0
M  RGP  2  16   1  17   2
V   16 *
V   17 *
M  END
>  <m_name>  (441)
D-3-(1-naphthyl)-alanine

>  <symbol>  (441)
D_1Nal

>  <m_abbr>  (441)
D_1Nal

>  <m_type>  (441)
aa

>  <m_subtype>  (441)
non-natural

>  <m_Rgroups>  (441)
H,OH,None,None

>  <m_RgroupIdx>  (441)
15,16,None,None

>  <m_attachmentPointIdx>  (441)
0,13,None,None

>  <natAnalog>  (441)
A

>  <pdbName>  (441)
D1E

$$$$

     RDKit          2D

  9  8  0  0  0  0  0  0  0  0999 V2000
    0.0000   -1.4289    0.0000 C   0  0  0  0  0  0  0  0  0  0  0  0
    0.8250   -1.4289    0.0000 C   0  0  0  0  0  0  0  0  0  0  0  0
    1.2375   -2.1434    0.0000 O   0  0  0  0  0  0  0  0  0  0  0  0
    1.2375   -0.7145    0.0000 C   0  0  0  0  0  0  0  0  0  0  0  0
    2.0625   -0.7145    0.0000 N   0  0  0  0  0  0  0  0  0  0  0  0
    0.8250    0.0000    0.0000 C   0  0  0  0  0  0  0  0  0  0  0  0
    0.0000    0.0000    0.0000 O   0  0  0  0  0  0  0  0  0  0  0  0
    2.4750    0.0000    0.0000 R#  0  0  0  0  0  0  0  0  0  0  0  0
    1.2375    0.7145    0.0000 R#  0  0  0  0  0  0  0  0  0  0  0  0
  2  1  1  6
  2  3  1  0
  2  4  1  0
  4  5  1  6
  5  8  1  0
  4  6  1  0
  6  9  1  0
  6  7  2  0
M  RGP  2   8   1   9   2
V    8 *
V    9 *
M  END
>  <m_name>  (442)
D-allo-Threonine

>  <symbol>  (442)
D_aThr

>  <m_abbr>  (442)
D_aThr

>  <m_type>  (442)
aa

>  <m_subtype>  (442)
non-natural

>  <m_Rgroups>  (442)
H,OH,None,None

>  <m_RgroupIdx>  (442)
7,8,None,None

>  <m_attachmentPointIdx>  (442)
4,5,None,None

>  <natAnalog>  (442)
T

>  <pdbName>  (442)
DKC

$$$$

     RDKit          2D

 13 13  0  0  0  0  0  0  0  0999 V2000
    0.0000    3.3000    0.0000 N   0  0  0  0  0  0  0  0  0  0  0  0
    0.0000    2.4750    0.0000 C   0  0  0  0  0  0  0  0  0  0  0  0
    0.7145    2.0625    0.0000 C   0  0  0  0  0  0  0  0  0  0  0  0
    0.7145    1.2375    0.0000 C   0  0  0  0  0  0  0  0  0  0  0  0
    1.4289    0.8250    0.0000 C   0  0  0  0  0  0  0  0  0  0  0  0
    1.4289    0.0000    0.0000 C   0  0  0  0  0  0  0  0  0  0  0  0
    0.7145   -0.4125    0.0000 C   0  0  0  0  0  0  0  0  0  0  0  0
    0.0000    0.0000    0.0000 C   0  0  0  0  0  0  0  0  0  0  0  0
    0.0000    0.8250    0.0000 C   0  0  0  0  0  0  0  0  0  0  0  0
   -0.7145    2.0625    0.0000 C   0  0  0  0  0  0  0  0  0  0  0  0
   -1.4289    2.4750    0.0000 O   0  0  0  0  0  0  0  0  0  0  0  0
   -0.7145    3.7125    0.0000 R#  0  0  0  0  0  0  0  0  0  0  0  0
   -0.7145    1.2375    0.0000 R#  0  0  0  0  0  0  0  0  0  0  0  0
 12  1  1  0
  2  1  1  0
  2  3  1  6
  3  4  1  0
  4  5  1  0
  5  6  1  0
  6  7  1  0
  7  8  1  0
  8  9  1  0
  4  9  1  0
  2 10  1  0
 10 13  1  0
 10 11  2  0
M  RGP  2  12   1  13   2
V   12 *
V   13 *
M  END
>  <m_name>  (443)
D-2-Amino-3-cyclohexyl-propionic acid

>  <symbol>  (443)
D_Cha

>  <m_abbr>  (443)
D_Cha

>  <m_type>  (443)
aa

>  <m_subtype>  (443)
non-natural

>  <m_Rgroups>  (443)
H,OH,None,None

>  <m_RgroupIdx>  (443)
11,12,None,None

>  <m_attachmentPointIdx>  (443)
0,9,None,None

>  <natAnalog>  (443)
A

>  <pdbName>  (443)
DLQ

$$$$

     RDKit          2D

 11 10  0  0  0  0  0  0  0  0999 V2000
    1.6500    0.0000    0.0000 C   0  0  0  0  0  0  0  0  0  0  0  0
    1.2375    0.7145    0.0000 C   0  0  0  0  0  0  0  0  0  0  0  0
    0.8250    1.4289    0.0000 C   0  0  0  0  0  0  0  0  0  0  0  0
    0.5230    0.3020    0.0000 S   0  0  0  0  0  0  0  0  0  0  0  0
    1.9520    1.1270    0.0000 C   0  0  0  0  0  0  0  0  0  0  0  0
    2.6664    0.7145    0.0000 N   0  0  0  0  0  0  0  0  0  0  0  0
    1.9520    1.9520    0.0000 C   0  0  0  0  0  0  0  0  0  0  0  0
    1.2375    2.3645    0.0000 O   0  0  0  0  0  0  0  0  0  0  0  0
   -0.1914    0.7145    0.0000 R#  0  0  0  0  0  0  0  0  0  0  0  0
    3.3809    1.1270    0.0000 R#  0  0  0  0  0  0  0  0  0  0  0  0
    2.6664    2.3645    0.0000 R#  0  0  0  0  0  0  0  0  0  0  0  0
  1  2  1  0
  2  3  1  0
  2  4  1  0
  4  9  1  0
  5  2  1  0
  5  6  1  6
  6 10  1  0
  5  7  1  0
  7 11  1  0
  7  8  2  0
M  RGP  3   9   3  10   1  11   2
V    9 *
V   10 *
V   11 *
M  END
>  <m_name>  (444)
D-penicillamine (3-mercaptovaline)

>  <symbol>  (444)
D_Pen

>  <m_abbr>  (444)
D_Pen

>  <m_type>  (444)
aa

>  <m_subtype>  (444)
non-natural

>  <m_Rgroups>  (444)
H,OH,H,None

>  <m_RgroupIdx>  (444)
9,10,8,None

>  <m_attachmentPointIdx>  (444)
5,6,3,None

>  <natAnalog>  (444)
V

>  <pdbName>  (444)
DLV

$$$$

     RDKit          2D

 14 14  0  0  0  0  0  0  0  0999 V2000
    0.7145    2.0625    0.0000 Cl  0  0  0  0  0  0  0  0  0  0  0  0
    0.7145    1.2375    0.0000 C   0  0  0  0  0  0  0  0  0  0  0  0
    1.4289    0.8250    0.0000 C   0  0  0  0  0  0  0  0  0  0  0  0
    1.4289    0.0000    0.0000 C   0  0  0  0  0  0  0  0  0  0  0  0
    0.7145   -0.4125    0.0000 C   0  0  0  0  0  0  0  0  0  0  0  0
    0.7145   -1.2375    0.0000 C   0  0  0  0  0  0  0  0  0  0  0  0
    1.4289   -1.6500    0.0000 C   0  0  0  0  0  0  0  0  0  0  0  0
    1.4289   -2.4750    0.0000 N   0  0  0  0  0  0  0  0  0  0  0  0
    2.1434   -1.2375    0.0000 C   0  0  0  0  0  0  0  0  0  0  0  0
    2.1434   -0.4125    0.0000 O   0  0  0  0  0  0  0  0  0  0  0  0
    0.0000    0.0000    0.0000 C   0  0  0  0  0  0  0  0  0  0  0  0
    0.0000    0.8250    0.0000 C   0  0  0  0  0  0  0  0  0  0  0  0
    2.1434   -2.8875    0.0000 R#  0  0  0  0  0  0  0  0  0  0  0  0
    2.8579   -1.6500    0.0000 R#  0  0  0  0  0  0  0  0  0  0  0  0
  1  2  1  0
  2  3  2  0
  3  4  1  0
  4  5  2  0
  5  6  1  0
  7  6  1  6
  7  8  1  0
  8 13  1  0
  7  9  1  0
  9 14  1  0
  9 10  2  0
  5 11  1  0
 11 12  2  0
  2 12  1  0
M  RGP  2  13   1  14   2
V   13 *
V   14 *
M  END
>  <m_name>  (445)
4-Chloro-D-phenylalanine

>  <symbol>  (445)
D_Phe_4Cl

>  <m_abbr>  (445)
D_Phe_4Cl

>  <m_type>  (445)
aa

>  <m_subtype>  (445)
non-natural

>  <m_Rgroups>  (445)
H,OH,None,None

>  <m_RgroupIdx>  (445)
12,13,None,None

>  <m_attachmentPointIdx>  (445)
7,8,None,None

>  <natAnalog>  (445)
F

>  <pdbName>  (445)
DO0

$$$$

     RDKit          2D

 15 15  0  0  0  0  0  0  0  0999 V2000
    3.1895   -2.6664    0.0000 N   0  0  0  0  0  0  0  0  0  0  0  0
    2.7770   -1.9520    0.0000 C   0  0  0  0  0  0  0  0  0  0  0  0
    1.9520   -1.9520    0.0000 C   0  0  0  0  0  0  0  0  0  0  0  0
    1.5395   -1.2375    0.0000 O   0  0  0  0  0  0  0  0  0  0  0  0
    0.7145   -1.2375    0.0000 C   0  0  0  0  0  0  0  0  0  0  0  0
    0.3020   -0.5230    0.0000 C   0  0  0  0  0  0  0  0  0  0  0  0
   -0.5230   -0.5230    0.0000 C   0  0  0  0  0  0  0  0  0  0  0  0
   -0.9355    0.1914    0.0000 C   0  0  0  0  0  0  0  0  0  0  0  0
   -0.5230    0.9059    0.0000 C   0  0  0  0  0  0  0  0  0  0  0  0
    0.3020    0.9059    0.0000 C   0  0  0  0  0  0  0  0  0  0  0  0
    0.7145    0.1914    0.0000 C   0  0  0  0  0  0  0  0  0  0  0  0
    3.1895   -1.2375    0.0000 C   0  0  0  0  0  0  0  0  0  0  0  0
    4.0145   -1.2375    0.0000 O   0  0  0  0  0  0  0  0  0  0  0  0
    4.0145   -2.6664    0.0000 R#  0  0  0  0  0  0  0  0  0  0  0  0
    2.7770   -0.5230    0.0000 R#  0  0  0  0  0  0  0  0  0  0  0  0
 14  1  1  0
  2  1  1  0
  2  3  1  6
  3  4  1  0
  4  5  1  0
  5  6  1  0
  6  7  2  0
  7  8  1  0
  8  9  2  0
  9 10  1  0
 10 11  2  0
  6 11  1  0
  2 12  1  0
 12 15  1  0
 12 13  2  0
M  RGP  2  14   1  15   2
V   14 *
V   15 *
M  END
>  <m_name>  (446)
O-Benzyl-D-serine

>  <symbol>  (446)
D_Ser_Bn

>  <m_abbr>  (446)
D_Ser_Bn

>  <m_type>  (446)
aa

>  <m_subtype>  (446)
non-natural

>  <m_Rgroups>  (446)
H,OH,None,None

>  <m_RgroupIdx>  (446)
13,14,None,None

>  <m_attachmentPointIdx>  (446)
0,11,None,None

>  <natAnalog>  (446)
S

>  <pdbName>  (446)
DO7

$$$$

     RDKit          2D

 15 15  0  0  0  0  0  0  0  0999 V2000
   -0.7145    2.0625    0.0000 N   0  0  0  0  0  0  0  0  0  0  0  0
    0.0000    2.4750    0.0000 C   0  0  0  0  0  0  0  0  0  0  0  0
    0.7145    2.0625    0.0000 C   0  0  0  0  0  0  0  0  0  0  0  0
    0.7145    1.2375    0.0000 N   0  0  0  0  0  0  0  0  0  0  0  0
    1.4289    0.8250    0.0000 C   0  0  0  0  0  0  0  0  0  0  0  0
    1.4289    0.0000    0.0000 C   0  0  0  0  0  0  0  0  0  0  0  0
    0.7145   -0.4125    0.0000 C   0  0  0  0  0  0  0  0  0  0  0  0
    0.7145   -1.2375    0.0000 O   0  0  0  0  0  0  0  0  0  0  0  0
    0.0000    0.0000    0.0000 N   0  0  0  0  0  0  0  0  0  0  0  0
    0.0000    0.8250    0.0000 C   0  0  0  0  0  0  0  0  0  0  0  0
   -0.7145    1.2375    0.0000 O   0  0  0  0  0  0  0  0  0  0  0  0
    0.0000    3.3000    0.0000 C   0  0  0  0  0  0  0  0  0  0  0  0
   -0.7145    3.7125    0.0000 O   0  0  0  0  0  0  0  0  0  0  0  0
   -1.4289    2.4750    0.0000 R#  0  0  0  0  0  0  0  0  0  0  0  0
    0.7145    3.7125    0.0000 R#  0  0  0  0  0  0  0  0  0  0  0  0
 14  1  1  0
  2  1  1  0
  2  3  1  6
  3  4  1  0
  4  5  1  0
  5  6  2  0
  6  7  1  0
  7  8  2  0
  7  9  1  0
  9 10  1  0
  4 10  1  0
 10 11  2  0
  2 12  1  0
 12 15  1  0
 12 13  2  0
M  RGP  2  14   1  15   2
V   14 *
V   15 *
M  END
>  <m_name>  (447)
Alpha-amino-2,4-dioxopyrimidinepropanoic acid

>  <symbol>  (447)
Wil

>  <m_abbr>  (447)
Wil

>  <m_type>  (447)
aa

>  <m_subtype>  (447)
non-natural

>  <m_Rgroups>  (447)
H,OH,None,None

>  <m_RgroupIdx>  (447)
13,14,None,None

>  <m_attachmentPointIdx>  (447)
0,11,None,None

>  <natAnalog>  (447)
X

>  <pdbName>  (447)
WIL

$$$$

     RDKit          2D

  5  4  0  0  0  0  0  0  0  0999 V2000
    1.0000   -0.0008    0.0000 C   0  0  0  0  0  0  0  0  0  0  0  0
    0.0000    0.0000    0.0000 S   0  0  0  0  0  0  0  0  0  0  0  0
    0.0008    1.0000    0.0000 O   0  0  0  0  0  0  0  0  0  0  0  0
   -0.0008   -1.0000    0.0000 O   0  0  0  0  0  0  0  0  0  0  0  0
   -1.0000    0.0008    0.0000 R#  0  0  0  0  0  0  0  0  0  0  0  0
  1  2  1  0
  2  3  2  0
  2  4  2  0
  2  5  1  0
M  RGP  1   5   2
V    5 *
M  END
>  <m_name>  (448)
Mesylate

>  <symbol>  (448)
MsO

>  <m_abbr>  (448)
MsO

>  <m_type>  (448)
aa

>  <m_subtype>  (448)
aa

>  <m_Rgroups>  (448)
None,OH,None,None

>  <m_RgroupIdx>  (448)
None,4,None,None

>  <m_attachmentPointIdx>  (448)
None,1,None,None

>  <natAnalog>  (448)
X

>  <pdbName>  (448)
MSV

$$$$

     RDKit          2D

 13 14  0  0  0  0  0  0  0  0999 V2000
    1.1387   -0.0305    0.0000 N   0  0  0  0  0  0  0  0  0  0  0  0
    1.9233   -0.2854    0.0000 C   0  0  0  0  0  0  0  0  0  0  0  0
    2.6378    0.1271    0.0000 C   0  0  0  0  0  0  0  0  0  0  0  0
    3.3523   -0.2854    0.0000 C   0  0  0  0  0  0  0  0  0  0  0  0
    3.3523   -1.1104    0.0000 C   0  0  0  0  0  0  0  0  0  0  0  0
    2.6378   -1.5229    0.0000 C   0  0  0  0  0  0  0  0  0  0  0  0
    1.9233   -1.1104    0.0000 C   0  0  0  0  0  0  0  0  0  0  0  0
    1.1387   -1.3654    0.0000 C   0  0  0  0  0  0  0  0  0  0  0  0
    0.6538   -0.6979    0.0000 C   0  0  0  0  0  0  0  0  0  0  0  0
   -0.1712   -0.6979    0.0000 C   0  0  0  0  0  0  0  0  0  0  0  0
   -0.5837    0.0165    0.0000 O   0  0  0  0  0  0  0  0  0  0  0  0
    0.8838    0.7541    0.0000 R#  0  0  0  0  0  0  0  0  0  0  0  0
   -0.5837   -1.4124    0.0000 R#  0  0  0  0  0  0  0  0  0  0  0  0
 12  1  1  0
  2  1  1  0
  2  3  1  1
  3  4  1  0
  4  5  1  0
  5  6  1  0
  7  6  1  1
  2  7  1  0
  7  8  1  0
  9  8  1  0
  9  1  1  0
  9 10  1  1
 10 13  1  0
 10 11  2  0
M  RGP  2  12   1  13   2
V   12 *
V   13 *
M  END
>  <m_name>  (449)
Perhydroindolic acid

>  <symbol>  (449)
Oic_3aS_7aS

>  <m_abbr>  (449)
Oic_3aS_7aS

>  <m_type>  (449)
aa

>  <m_subtype>  (449)
non-natural

>  <m_Rgroups>  (449)
H,OH,None,None

>  <m_RgroupIdx>  (449)
11,12,None,None

>  <m_attachmentPointIdx>  (449)
0,9,None,None

>  <natAnalog>  (449)
X

>  <pdbName>  (449)
OIB

$$$$

     RDKit          2D

 13 12  0  0  0  0  0  0  0  0999 V2000
    5.2882    4.9755    0.0000 N   0  0  0  0  0  0  0  0  0  0  0  0
    4.7481    4.3519    0.0000 C   0  0  0  0  0  0  0  0  0  0  0  0
    3.9379    4.5078    0.0000 C   0  0  0  0  0  0  0  0  0  0  0  0
    3.3979    3.8842    0.0000 C   0  0  0  0  0  0  0  0  0  0  0  0
    2.5877    4.0401    0.0000 C   0  0  0  0  0  0  0  0  0  0  0  0
    2.0476    3.4164    0.0000 C   0  0  0  0  0  0  0  0  0  0  0  0
    1.2375    3.5724    0.0000 C   0  0  0  0  0  0  0  0  0  0  0  0
    0.9675    4.3519    0.0000 O   0  0  0  0  0  0  0  0  0  0  0  0
    5.0181    3.5724    0.0000 C   0  0  0  0  0  0  0  0  0  0  0  0
    4.4780    2.9487    0.0000 O   0  0  0  0  0  0  0  0  0  0  0  0
    6.0983    4.8196    0.0000 R#  0  0  0  0  0  0  0  0  0  0  0  0
    0.6974    2.9487    0.0000 R#  0  0  0  0  0  0  0  0  0  0  0  0
    5.8283    3.4164    0.0000 R#  0  0  0  0  0  0  0  0  0  0  0  0
 11  1  1  0
  2  1  1  0
  2  3  1  6
  3  4  1  0
  4  5  1  0
  5  6  1  0
  6  7  1  0
  7 12  1  0
  7  8  2  0
  2  9  1  0
  9 13  1  0
  9 10  2  0
M  RGP  3  11   1  12   3  13   2
V   11 *
V   12 *
V   13 *
M  END
>  <m_name>  (450)
2-Aminopimelic acid

>  <symbol>  (450)
Apm

>  <m_abbr>  (450)
Apm

>  <m_type>  (450)
aa

>  <m_subtype>  (450)
non-natural

>  <m_Rgroups>  (450)
H,OH,OH,None

>  <m_RgroupIdx>  (450)
10,12,11,None

>  <m_attachmentPointIdx>  (450)
0,8,6,None

>  <natAnalog>  (450)
X

>  <pdbName>  (450)
AAW

$$$$

     RDKit          2D

 10  9  0  0  0  0  0  0  0  0999 V2000
    3.7125    3.5724    0.0000 N   0  0  0  0  0  0  0  0  0  0  0  0
    3.3000    2.8579    0.0000 C   0  0  0  0  0  0  0  0  0  0  0  0
    2.4750    2.8579    0.0000 C   0  0  0  0  0  0  0  0  0  0  0  0
    2.0625    2.1434    0.0000 C   0  0  0  0  0  0  0  0  0  0  0  0
    1.2375    2.1434    0.0000 N   0  0  0  0  0  0  0  0  0  0  0  0
    3.7125    2.1434    0.0000 C   0  0  0  0  0  0  0  0  0  0  0  0
    3.3000    1.4289    0.0000 O   0  0  0  0  0  0  0  0  0  0  0  0
    4.5375    3.5724    0.0000 R#  0  0  0  0  0  0  0  0  0  0  0  0
    0.8250    1.4289    0.0000 R#  0  0  0  0  0  0  0  0  0  0  0  0
    4.5375    2.1434    0.0000 R#  0  0  0  0  0  0  0  0  0  0  0  0
  8  1  1  0
  2  1  1  0
  2  3  1  6
  3  4  1  0
  4  5  1  0
  5  9  1  0
  2  6  1  0
  6 10  1  0
  6  7  2  0
M  RGP  3   8   1   9   3  10   2
V    8 *
V    9 *
V   10 *
M  END
>  <m_name>  (451)
2,4-diaminobutanoic acid

>  <symbol>  (451)
Dab

>  <m_abbr>  (451)
Dab

>  <m_type>  (451)
aa

>  <m_subtype>  (451)
non-natural

>  <m_Rgroups>  (451)
H,OH,H,None

>  <m_RgroupIdx>  (451)
7,9,8,None

>  <m_attachmentPointIdx>  (451)
0,5,4,None

>  <natAnalog>  (451)
X

>  <pdbName>  (451)
DQE

$$$$

     RDKit          2D

  9  8  0  0  0  0  0  0  0  0999 V2000
    1.9520   -1.9520    0.0000 N   0  0  0  0  0  0  0  0  0  0  0  0
    1.9520   -1.1270    0.0000 C   0  0  0  0  0  0  0  0  0  0  0  0
    1.2375   -0.7145    0.0000 C   0  0  0  0  0  0  0  0  0  0  0  0
    1.2375    0.1105    0.0000 N   0  0  0  0  0  0  0  0  0  0  0  0
    2.6664   -0.7145    0.0000 C   0  0  0  0  0  0  0  0  0  0  0  0
    3.3809   -1.1270    0.0000 O   0  0  0  0  0  0  0  0  0  0  0  0
    2.6664   -2.3645    0.0000 R#  0  0  0  0  0  0  0  0  0  0  0  0
    0.5230    0.5230    0.0000 R#  0  0  0  0  0  0  0  0  0  0  0  0
    2.6664    0.1105    0.0000 R#  0  0  0  0  0  0  0  0  0  0  0  0
  7  1  1  0
  2  1  1  0
  2  3  1  1
  3  4  1  0
  4  8  1  0
  2  5  1  0
  5  9  1  0
  5  6  2  0
M  RGP  3   7   1   8   3   9   2
V    7 *
V    8 *
V    9 *
M  END
>  <m_name>  (452)
2,3-diaminopropanoic acid

>  <symbol>  (452)
Dap

>  <m_abbr>  (452)
Dap

>  <m_type>  (452)
aa

>  <m_subtype>  (452)
non-natural

>  <m_Rgroups>  (452)
H,OH,H,None

>  <m_RgroupIdx>  (452)
6,8,7,None

>  <m_attachmentPointIdx>  (452)
0,4,3,None

>  <natAnalog>  (452)
X

>  <pdbName>  (452)
DQI

$$$$

     RDKit          2D

 13 13  0  0  0  0  0  0  0  0999 V2000
    0.0000    3.3000    0.0000 N   0  0  0  0  0  0  0  0  0  0  0  0
    0.0000    2.4750    0.0000 C   0  0  0  0  0  0  0  0  0  0  0  0
    0.7145    2.0625    0.0000 C   0  0  0  0  0  0  0  0  0  0  0  0
    0.7145    1.2375    0.0000 C   0  0  0  0  0  0  0  0  0  0  0  0
    1.4289    0.8250    0.0000 C   0  0  0  0  0  0  0  0  0  0  0  0
    1.4289    0.0000    0.0000 C   0  0  0  0  0  0  0  0  0  0  0  0
    0.7145   -0.4125    0.0000 C   0  0  0  0  0  0  0  0  0  0  0  0
    0.0000    0.0000    0.0000 N   0  0  0  0  0  0  0  0  0  0  0  0
    0.0000    0.8250    0.0000 C   0  0  0  0  0  0  0  0  0  0  0  0
   -0.7145    2.0625    0.0000 C   0  0  0  0  0  0  0  0  0  0  0  0
   -1.4289    2.4750    0.0000 O   0  0  0  0  0  0  0  0  0  0  0  0
   -0.7145    3.7125    0.0000 R#  0  0  0  0  0  0  0  0  0  0  0  0
   -0.7145    1.2375    0.0000 R#  0  0  0  0  0  0  0  0  0  0  0  0
 12  1  1  0
  2  1  1  0
  2  3  1  6
  3  4  1  0
  4  5  2  0
  5  6  1  0
  6  7  2  0
  7  8  1  0
  8  9  2  0
  4  9  1  0
  2 10  1  0
 10 13  1  0
 10 11  2  0
M  RGP  2  12   1  13   2
V   12 *
V   13 *
M  END
>  <m_name>  (453)
D-3-(2-pyridyl)-alanine

>  <symbol>  (453)
D_3Pal

>  <m_abbr>  (453)
D_3Pal

>  <m_type>  (453)
aa

>  <m_subtype>  (453)
non-natural

>  <m_Rgroups>  (453)
H,OH,None,None

>  <m_RgroupIdx>  (453)
11,12,None,None

>  <m_attachmentPointIdx>  (453)
0,9,None,None

>  <natAnalog>  (453)
X

>  <pdbName>  (453)
D3I

$$$$

     RDKit          2D

  9  8  0  0  0  0  0  0  0  0999 V2000
    0.5230   -1.9520    0.0000 C   0  0  0  0  0  0  0  0  0  0  0  0
    0.5230   -1.1270    0.0000 C   0  0  0  0  0  0  0  0  0  0  0  0
    1.2375   -0.7145    0.0000 C   0  0  0  0  0  0  0  0  0  0  0  0
    1.6500   -1.4289    0.0000 C   0  0  0  0  0  0  0  0  0  0  0  0
    1.9520   -0.3020    0.0000 N   0  0  0  0  0  0  0  0  0  0  0  0
    0.8250    0.0000    0.0000 C   0  0  0  0  0  0  0  0  0  0  0  0
    0.0000    0.0000    0.0000 O   0  0  0  0  0  0  0  0  0  0  0  0
    1.9520    0.5230    0.0000 R#  0  0  0  0  0  0  0  0  0  0  0  0
    1.2375    0.7145    0.0000 R#  0  0  0  0  0  0  0  0  0  0  0  0
  1  2  1  0
  3  2  1  0
  3  4  1  1
  3  5  1  0
  5  8  1  0
  3  6  1  0
  6  9  1  0
  6  7  2  0
M  RGP  2   8   1   9   2
V    8 *
V    9 *
M  END
>  <m_name>  (454)
D-Isovaline

>  <symbol>  (454)
D_aMeAbu

>  <m_abbr>  (454)
D_aMeAbu

>  <m_type>  (454)
aa

>  <m_subtype>  (454)
non-natural

>  <m_Rgroups>  (454)
H,OH,None,None

>  <m_RgroupIdx>  (454)
7,8,None,None

>  <m_attachmentPointIdx>  (454)
4,5,None,None

>  <natAnalog>  (454)
X

>  <pdbName>  (454)
DQ4

$$$$

     RDKit          2D

 12 12  0  0  0  0  0  0  0  0999 V2000
    0.0000    2.4750    0.0000 N   0  0  0  0  0  0  0  0  0  0  0  0
    0.7145    2.0625    0.0000 C   0  0  0  0  0  0  0  0  0  0  0  0
    0.7145    1.2375    0.0000 C   0  0  0  0  0  0  0  0  0  0  0  0
    1.4289    0.8250    0.0000 C   0  0  0  0  0  0  0  0  0  0  0  0
    1.4289    0.0000    0.0000 C   0  0  0  0  0  0  0  0  0  0  0  0
    0.7145   -0.4125    0.0000 C   0  0  0  0  0  0  0  0  0  0  0  0
    0.0000    0.0000    0.0000 C   0  0  0  0  0  0  0  0  0  0  0  0
    0.0000    0.8250    0.0000 C   0  0  0  0  0  0  0  0  0  0  0  0
    1.4289    2.4750    0.0000 C   0  0  0  0  0  0  0  0  0  0  0  0
    1.4289    3.3000    0.0000 O   0  0  0  0  0  0  0  0  0  0  0  0
    0.0000    3.3000    0.0000 R#  0  0  0  0  0  0  0  0  0  0  0  0
    2.1434    2.0625    0.0000 R#  0  0  0  0  0  0  0  0  0  0  0  0
 11  1  1  0
  2  1  1  1
  2  3  1  0
  3  4  1  0
  4  5  1  0
  5  6  1  0
  6  7  1  0
  7  8  1  0
  3  8  1  0
  2  9  1  0
  9 12  1  0
  9 10  2  0
M  RGP  2  11   1  12   2
V   11 *
V   12 *
M  END
>  <m_name>  (455)
D-Alpha-cyclohexylglycine

>  <symbol>  (455)
D_Chg

>  <m_abbr>  (455)
D_Chg

>  <m_type>  (455)
aa

>  <m_subtype>  (455)
non-natural

>  <m_Rgroups>  (455)
H,OH,None,None

>  <m_RgroupIdx>  (455)
10,11,None,None

>  <m_attachmentPointIdx>  (455)
0,8,None,None

>  <natAnalog>  (455)
X

>  <pdbName>  (455)
DUF

$$$$

     RDKit          2D

 13 12  0  0  0  0  0  0  0  0999 V2000
    0.6974   -2.9487    0.0000 N   0  0  0  0  0  0  0  0  0  0  0  0
    1.2375   -3.5724    0.0000 C   0  0  0  0  0  0  0  0  0  0  0  0
    0.9675   -4.3519    0.0000 O   0  0  0  0  0  0  0  0  0  0  0  0
    2.0476   -3.4164    0.0000 N   0  0  0  0  0  0  0  0  0  0  0  0
    2.5877   -4.0401    0.0000 C   0  0  0  0  0  0  0  0  0  0  0  0
    3.3979   -3.8842    0.0000 C   0  0  0  0  0  0  0  0  0  0  0  0
    3.9379   -4.5078    0.0000 C   0  0  0  0  0  0  0  0  0  0  0  0
    4.7481   -4.3519    0.0000 C   0  0  0  0  0  0  0  0  0  0  0  0
    5.2882   -4.9755    0.0000 N   0  0  0  0  0  0  0  0  0  0  0  0
    5.0181   -3.5724    0.0000 C   0  0  0  0  0  0  0  0  0  0  0  0
    5.8283   -3.4164    0.0000 O   0  0  0  0  0  0  0  0  0  0  0  0
    6.0983   -4.8196    0.0000 R#  0  0  0  0  0  0  0  0  0  0  0  0
    4.4780   -2.9487    0.0000 R#  0  0  0  0  0  0  0  0  0  0  0  0
  1  2  1  0
  2  3  2  0
  2  4  1  0
  4  5  1  0
  5  6  1  0
  6  7  1  0
  8  7  1  6
  8  9  1  0
  9 12  1  0
  8 10  1  0
 10 13  1  0
 10 11  2  0
M  RGP  2  12   1  13   2
V   12 *
V   13 *
M  END
>  <m_name>  (456)
D-Citrullin

>  <symbol>  (456)
D_Cit

>  <m_abbr>  (456)
D_Cit

>  <m_type>  (456)
aa

>  <m_subtype>  (456)
non-natural

>  <m_Rgroups>  (456)
H,OH,None,None

>  <m_RgroupIdx>  (456)
11,12,None,None

>  <m_attachmentPointIdx>  (456)
8,9,None,None

>  <natAnalog>  (456)
X

>  <pdbName>  (456)
DUI

$$$$

     RDKit          2D

 10  9  0  0  0  0  0  0  0  0999 V2000
    3.7125    3.5724    0.0000 N   0  0  0  0  0  0  0  0  0  0  0  0
    3.3000    2.8579    0.0000 C   0  0  0  0  0  0  0  0  0  0  0  0
    2.4750    2.8579    0.0000 C   0  0  0  0  0  0  0  0  0  0  0  0
    2.0625    2.1434    0.0000 C   0  0  0  0  0  0  0  0  0  0  0  0
    1.2375    2.1434    0.0000 N   0  0  0  0  0  0  0  0  0  0  0  0
    3.7125    2.1434    0.0000 C   0  0  0  0  0  0  0  0  0  0  0  0
    3.3000    1.4289    0.0000 O   0  0  0  0  0  0  0  0  0  0  0  0
    4.5375    3.5724    0.0000 R#  0  0  0  0  0  0  0  0  0  0  0  0
    0.8250    1.4289    0.0000 R#  0  0  0  0  0  0  0  0  0  0  0  0
    4.5375    2.1434    0.0000 R#  0  0  0  0  0  0  0  0  0  0  0  0
  8  1  1  0
  2  1  1  0
  2  3  1  1
  3  4  1  0
  4  5  1  0
  5  9  1  0
  2  6  1  0
  6 10  1  0
  6  7  2  0
M  RGP  3   8   1   9   3  10   2
V    8 *
V    9 *
V   10 *
M  END
>  <m_name>  (457)
D-2,4-diaminobutanoic acid

>  <symbol>  (457)
D_Dab

>  <m_abbr>  (457)
D_Dab

>  <m_type>  (457)
aa

>  <m_subtype>  (457)
non-natural

>  <m_Rgroups>  (457)
H,OH,H,None

>  <m_RgroupIdx>  (457)
7,9,8,None

>  <m_attachmentPointIdx>  (457)
0,5,4,None

>  <natAnalog>  (457)
X

>  <pdbName>  (457)
DUJ

$$$$

     RDKit          2D

 10 10  0  0  0  0  0  0  0  0999 V2000
    0.7145    1.2375    0.0000 N   0  0  0  0  0  0  0  0  0  0  0  0
    1.4289    0.8250    0.0000 C   0  0  0  0  0  0  0  0  0  0  0  0
    1.4289    0.0000    0.0000 C   0  0  0  0  0  0  0  0  0  0  0  0
    0.7145   -0.4125    0.0000 C   0  0  0  0  0  0  0  0  0  0  0  0
    0.0000    0.0000    0.0000 C   0  0  0  0  0  0  0  0  0  0  0  0
    0.0000    0.8250    0.0000 C   0  0  0  0  0  0  0  0  0  0  0  0
   -0.7145    1.2375    0.0000 C   0  0  0  0  0  0  0  0  0  0  0  0
   -0.7145    2.0625    0.0000 O   0  0  0  0  0  0  0  0  0  0  0  0
    0.7145    2.0625    0.0000 R#  0  0  0  0  0  0  0  0  0  0  0  0
   -1.4289    0.8250    0.0000 R#  0  0  0  0  0  0  0  0  0  0  0  0
  9  1  1  0
  1  2  1  0
  2  3  1  0
  3  4  1  0
  4  5  1  0
  6  5  1  0
  6  1  1  0
  6  7  1  6
  7 10  1  0
  7  8  2  0
M  RGP  2   9   1  10   2
V    9 *
V   10 *
M  END
>  <m_name>  (458)
D-Pipecolic acid

>  <symbol>  (458)
D_Pip

>  <m_abbr>  (458)
D_Pip

>  <m_type>  (458)
aa

>  <m_subtype>  (458)
non-natural

>  <m_Rgroups>  (458)
H,OH,None,None

>  <m_RgroupIdx>  (458)
8,9,None,None

>  <m_attachmentPointIdx>  (458)
0,6,None,None

>  <natAnalog>  (458)
X

>  <pdbName>  (458)
DUM

$$$$

     RDKit          2D

 14 15  0  0  0  0  0  0  0  0999 V2000
    0.7145   -0.4125    0.0000 N   0  0  0  0  0  0  0  0  0  0  0  0
    1.4289    0.0000    0.0000 C   0  0  0  0  0  0  0  0  0  0  0  0
    2.1434   -0.4125    0.0000 C   0  0  0  0  0  0  0  0  0  0  0  0
    2.8579    0.0000    0.0000 C   0  0  0  0  0  0  0  0  0  0  0  0
    3.5724   -0.4125    0.0000 C   0  0  0  0  0  0  0  0  0  0  0  0
    3.5724   -1.2375    0.0000 C   0  0  0  0  0  0  0  0  0  0  0  0
    2.8579   -1.6500    0.0000 C   0  0  0  0  0  0  0  0  0  0  0  0
    2.1434   -1.2375    0.0000 C   0  0  0  0  0  0  0  0  0  0  0  0
    1.4289   -1.6500    0.0000 C   0  0  0  0  0  0  0  0  0  0  0  0
    0.7145   -1.2375    0.0000 C   0  0  0  0  0  0  0  0  0  0  0  0
    0.0000   -1.6500    0.0000 C   0  0  0  0  0  0  0  0  0  0  0  0
   -0.7145   -1.2375    0.0000 O   0  0  0  0  0  0  0  0  0  0  0  0
    0.0000    0.0000    0.0000 R#  0  0  0  0  0  0  0  0  0  0  0  0
    0.0000   -2.4750    0.0000 R#  0  0  0  0  0  0  0  0  0  0  0  0
 13  1  1  0
  1  2  1  0
  2  3  1  0
  3  4  2  0
  4  5  1  0
  5  6  2  0
  6  7  1  0
  7  8  2  0
  3  8  1  0
  8  9  1  0
 10  9  1  0
 10  1  1  0
 10 11  1  6
 11 14  1  0
 11 12  2  0
M  RGP  2  13   1  14   2
V   13 *
V   14 *
M  END
>  <m_name>  (459)
D-1,2,3,4-tetrahydro-3-isoquinolinecarboxylic acid

>  <symbol>  (459)
D_Tic

>  <m_abbr>  (459)
D_Tic

>  <m_type>  (459)
aa

>  <m_subtype>  (459)
non-natural

>  <m_Rgroups>  (459)
H,OH,None,None

>  <m_RgroupIdx>  (459)
12,13,None,None

>  <m_attachmentPointIdx>  (459)
0,10,None,None

>  <natAnalog>  (459)
X

>  <pdbName>  (459)
DVF

$$$$

     RDKit          2D

 14 13  0  0  0  0  0  0  0  0999 V2000
    0.6430   -4.4293    0.0000 C   0  0  0  0  0  0  0  0  0  0  0  0
    1.2375   -5.0013    0.0000 C   0  0  0  0  0  0  0  0  0  0  0  0
    2.0301   -4.7725    0.0000 C   0  0  0  0  0  0  0  0  0  0  0  0
    2.6246   -5.3445    0.0000 C   0  0  0  0  0  0  0  0  0  0  0  0
    3.4172   -5.1157    0.0000 C   0  0  0  0  0  0  0  0  0  0  0  0
    4.0117   -5.6877    0.0000 C   0  0  0  0  0  0  0  0  0  0  0  0
    4.8044   -5.4589    0.0000 C   0  0  0  0  0  0  0  0  0  0  0  0
    5.3988   -6.0310    0.0000 C   0  0  0  0  0  0  0  0  0  0  0  0
    6.1915   -5.8021    0.0000 C   0  0  0  0  0  0  0  0  0  0  0  0
    6.7859   -6.3742    0.0000 N   0  0  0  0  0  0  0  0  0  0  0  0
    6.3896   -5.0013    0.0000 C   0  0  0  0  0  0  0  0  0  0  0  0
    7.1823   -4.7725    0.0000 O   0  0  0  0  0  0  0  0  0  0  0  0
    7.5786   -6.1454    0.0000 R#  0  0  0  0  0  0  0  0  0  0  0  0
    5.7951   -4.4293    0.0000 R#  0  0  0  0  0  0  0  0  0  0  0  0
  1  2  1  0
  2  3  1  0
  3  4  1  0
  4  5  1  0
  5  6  1  0
  6  7  1  0
  7  8  1  0
  9  8  1  1
  9 10  1  0
 10 13  1  0
  9 11  1  0
 11 14  1  0
 11 12  2  0
M  RGP  2  13   1  14   2
V   13 *
V   14 *
M  END
>  <m_name>  (460)
2-Aminocapric acid

>  <symbol>  (460)
Aca

>  <m_abbr>  (460)
Aca

>  <m_type>  (460)
aa

>  <m_subtype>  (460)
non-natural

>  <m_Rgroups>  (460)
H,OH,None,None

>  <m_RgroupIdx>  (460)
12,13,None,None

>  <m_attachmentPointIdx>  (460)
9,10,None,None

>  <natAnalog>  (460)
X

>  <pdbName>  (460)
AC3

$$$$

     RDKit          2D

 14 15  0  0  0  0  0  0  0  0999 V2000
    0.7145   -0.4125    0.0000 N   0  0  0  0  0  0  0  0  0  0  0  0
    1.4289    0.0000    0.0000 C   0  0  0  0  0  0  0  0  0  0  0  0
    2.1434   -0.4125    0.0000 C   0  0  0  0  0  0  0  0  0  0  0  0
    2.8579    0.0000    0.0000 C   0  0  0  0  0  0  0  0  0  0  0  0
    3.5724   -0.4125    0.0000 C   0  0  0  0  0  0  0  0  0  0  0  0
    3.5724   -1.2375    0.0000 C   0  0  0  0  0  0  0  0  0  0  0  0
    2.8579   -1.6500    0.0000 C   0  0  0  0  0  0  0  0  0  0  0  0
    2.1434   -1.2375    0.0000 C   0  0  0  0  0  0  0  0  0  0  0  0
    1.4289   -1.6500    0.0000 C   0  0  0  0  0  0  0  0  0  0  0  0
    0.7145   -1.2375    0.0000 C   0  0  0  0  0  0  0  0  0  0  0  0
    0.0000   -1.6500    0.0000 C   0  0  0  0  0  0  0  0  0  0  0  0
   -0.7145   -1.2375    0.0000 O   0  0  0  0  0  0  0  0  0  0  0  0
    0.0000    0.0000    0.0000 R#  0  0  0  0  0  0  0  0  0  0  0  0
    0.0000   -2.4750    0.0000 R#  0  0  0  0  0  0  0  0  0  0  0  0
 13  1  1  0
  1  2  1  0
  2  3  1  0
  3  4  2  0
  4  5  1  0
  5  6  2  0
  6  7  1  0
  7  8  2  0
  3  8  1  0
  8  9  1  0
 10  9  1  0
 10  1  1  0
 10 11  1  1
 11 14  1  0
 11 12  2  0
M  RGP  2  13   1  14   2
V   13 *
V   14 *
M  END
>  <m_name>  (461)
1,2,3,4-tetrahydro-3-isoquinolinecarboxylic acid

>  <symbol>  (461)
Tic

>  <m_abbr>  (461)
Tic

>  <m_type>  (461)
aa

>  <m_subtype>  (461)
non-natural

>  <m_Rgroups>  (461)
H,OH,None,None

>  <m_RgroupIdx>  (461)
12,13,None,None

>  <m_attachmentPointIdx>  (461)
0,10,None,None

>  <natAnalog>  (461)
X

>  <pdbName>  (461)
TIE

$$$$

     RDKit          2D

 12 11  0  0  0  0  0  0  0  0999 V2000
    3.7125   -3.5724    0.0000 N   0  0  0  0  0  0  0  0  0  0  0  0
    3.3000   -2.8579    0.0000 C   0  0  0  0  0  0  0  0  0  0  0  0
    2.4750   -2.8579    0.0000 C   0  0  0  0  0  0  0  0  0  0  0  0
    2.0625   -2.1434    0.0000 C   0  0  0  0  0  0  0  0  0  0  0  0
    1.2375   -2.1434    0.0000 C   0  0  0  0  0  0  0  0  0  0  0  0
    0.8250   -1.4289    0.0000 C   0  0  0  0  0  0  0  0  0  0  0  0
    1.2375   -0.7145    0.0000 O   0  0  0  0  0  0  0  0  0  0  0  0
    3.7125   -2.1434    0.0000 C   0  0  0  0  0  0  0  0  0  0  0  0
    4.5375   -2.1434    0.0000 O   0  0  0  0  0  0  0  0  0  0  0  0
    4.5375   -3.5724    0.0000 R#  0  0  0  0  0  0  0  0  0  0  0  0
    0.0000   -1.4289    0.0000 R#  0  0  0  0  0  0  0  0  0  0  0  0
    3.3000   -1.4289    0.0000 R#  0  0  0  0  0  0  0  0  0  0  0  0
 10  1  1  0
  2  1  1  0
  2  3  1  1
  3  4  1  0
  4  5  1  0
  5  6  1  0
  6 11  1  0
  6  7  2  0
  2  8  1  0
  8 12  1  0
  8  9  2  0
M  RGP  3  10   1  11   3  12   2
V   10 *
V   11 *
V   12 *
M  END
>  <m_name>  (462)
2-Aminoadipic acid

>  <symbol>  (462)
Aad

>  <m_abbr>  (462)
Aad

>  <m_type>  (462)
aa

>  <m_subtype>  (462)
non-natural

>  <m_Rgroups>  (462)
H,OH,OH,None

>  <m_RgroupIdx>  (462)
9,11,10,None

>  <m_attachmentPointIdx>  (462)
0,7,5,None

>  <natAnalog>  (462)
X

>  <pdbName>  (462)
AD0

$$$$

     RDKit          2D

 13 12  0  0  0  0  0  0  0  0999 V2000
    0.6974   -2.9487    0.0000 N   0  0  0  0  0  0  0  0  0  0  0  0
    1.2375   -3.5724    0.0000 C   0  0  0  0  0  0  0  0  0  0  0  0
    0.9675   -4.3519    0.0000 O   0  0  0  0  0  0  0  0  0  0  0  0
    2.0476   -3.4164    0.0000 N   0  0  0  0  0  0  0  0  0  0  0  0
    2.5877   -4.0401    0.0000 C   0  0  0  0  0  0  0  0  0  0  0  0
    3.3979   -3.8842    0.0000 C   0  0  0  0  0  0  0  0  0  0  0  0
    3.9379   -4.5078    0.0000 C   0  0  0  0  0  0  0  0  0  0  0  0
    4.7481   -4.3519    0.0000 C   0  0  0  0  0  0  0  0  0  0  0  0
    5.2882   -4.9755    0.0000 N   0  0  0  0  0  0  0  0  0  0  0  0
    5.0181   -3.5724    0.0000 C   0  0  0  0  0  0  0  0  0  0  0  0
    5.8283   -3.4164    0.0000 O   0  0  0  0  0  0  0  0  0  0  0  0
    6.0983   -4.8196    0.0000 R#  0  0  0  0  0  0  0  0  0  0  0  0
    4.4780   -2.9487    0.0000 R#  0  0  0  0  0  0  0  0  0  0  0  0
  1  2  1  0
  2  3  2  0
  2  4  1  0
  4  5  1  0
  5  6  1  0
  6  7  1  0
  8  7  1  1
  8  9  1  0
  9 12  1  0
  8 10  1  0
 10 13  1  0
 10 11  2  0
M  RGP  2  12   1  13   2
V   12 *
V   13 *
M  END
>  <m_name>  (463)
Citrullin

>  <symbol>  (463)
Cit

>  <m_abbr>  (463)
Cit

>  <m_type>  (463)
aa

>  <m_subtype>  (463)
non-natural

>  <m_Rgroups>  (463)
H,OH,None,None

>  <m_RgroupIdx>  (463)
11,12,None,None

>  <m_attachmentPointIdx>  (463)
8,9,None,None

>  <natAnalog>  (463)
X

>  <pdbName>  (463)
CIF

$$$$

     RDKit          2D

 13 13  0  0  0  0  0  0  0  0999 V2000
    0.0000    3.3000    0.0000 N   0  0  0  0  0  0  0  0  0  0  0  0
    0.0000    2.4750    0.0000 C   0  0  0  0  0  0  0  0  0  0  0  0
    0.7145    2.0625    0.0000 C   0  0  0  0  0  0  0  0  0  0  0  0
    0.7145    1.2375    0.0000 C   0  0  0  0  0  0  0  0  0  0  0  0
    1.4289    0.8250    0.0000 C   0  0  0  0  0  0  0  0  0  0  0  0
    1.4289    0.0000    0.0000 C   0  0  0  0  0  0  0  0  0  0  0  0
    0.7145   -0.4125    0.0000 C   0  0  0  0  0  0  0  0  0  0  0  0
    0.0000    0.0000    0.0000 C   0  0  0  0  0  0  0  0  0  0  0  0
    0.0000    0.8250    0.0000 N   0  0  0  0  0  0  0  0  0  0  0  0
   -0.7145    2.0625    0.0000 C   0  0  0  0  0  0  0  0  0  0  0  0
   -1.4289    2.4750    0.0000 O   0  0  0  0  0  0  0  0  0  0  0  0
   -0.7145    3.7125    0.0000 R#  0  0  0  0  0  0  0  0  0  0  0  0
   -0.7145    1.2375    0.0000 R#  0  0  0  0  0  0  0  0  0  0  0  0
 12  1  1  0
  2  1  1  0
  2  3  1  6
  3  4  1  0
  4  5  2  0
  5  6  1  0
  6  7  2  0
  7  8  1  0
  8  9  2  0
  4  9  1  0
  2 10  1  0
 10 13  1  0
 10 11  2  0
M  RGP  2  12   1  13   2
V   12 *
V   13 *
M  END
>  <m_name>  (464)
D-3-(2-Pyridyl)-alanine

>  <symbol>  (464)
D_2Pal

>  <m_abbr>  (464)
D_2Pal

>  <m_type>  (464)
aa

>  <m_subtype>  (464)
non-natural

>  <m_Rgroups>  (464)
H,OH,None,None

>  <m_RgroupIdx>  (464)
11,12,None,None

>  <m_attachmentPointIdx>  (464)
0,9,None,None

>  <natAnalog>  (464)
X

>  <pdbName>  (464)
DVI

$$$$

     RDKit          2D

  8  7  0  0  0  0  0  0  0  0999 V2000
    0.0000   -1.4289    0.0000 C   0  0  0  0  0  0  0  0  0  0  0  0
    0.8250   -1.4289    0.0000 C   0  0  0  0  0  0  0  0  0  0  0  0
    1.2375   -0.7145    0.0000 C   0  0  0  0  0  0  0  0  0  0  0  0
    2.0625   -0.7145    0.0000 N   0  0  0  0  0  0  0  0  0  0  0  0
    0.8250    0.0000    0.0000 C   0  0  0  0  0  0  0  0  0  0  0  0
    0.0000    0.0000    0.0000 O   0  0  0  0  0  0  0  0  0  0  0  0
    2.4750    0.0000    0.0000 R#  0  0  0  0  0  0  0  0  0  0  0  0
    1.2375    0.7145    0.0000 R#  0  0  0  0  0  0  0  0  0  0  0  0
  1  2  1  0
  3  2  1  6
  3  4  1  0
  4  7  1  0
  3  5  1  0
  5  8  1  0
  5  6  2  0
M  RGP  2   7   1   8   2
V    7 *
V    8 *
M  END
>  <m_name>  (465)
D-2-aminobutanoic acid

>  <symbol>  (465)
D_Abu

>  <m_abbr>  (465)
D_Abu

>  <m_type>  (465)
aa

>  <m_subtype>  (465)
non-natural

>  <m_Rgroups>  (465)
H,OH,None,None

>  <m_RgroupIdx>  (465)
6,7,None,None

>  <m_attachmentPointIdx>  (465)
3,4,None,None

>  <natAnalog>  (465)
X

>  <pdbName>  (465)
DVO

$$$$

     RDKit          2D

  9  8  0  0  0  0  0  0  0  0999 V2000
    1.9520   -1.9520    0.0000 N   0  0  0  0  0  0  0  0  0  0  0  0
    1.9520   -1.1270    0.0000 C   0  0  0  0  0  0  0  0  0  0  0  0
    1.2375   -0.7145    0.0000 C   0  0  0  0  0  0  0  0  0  0  0  0
    1.2375    0.1105    0.0000 N   0  0  0  0  0  0  0  0  0  0  0  0
    2.6664   -0.7145    0.0000 C   0  0  0  0  0  0  0  0  0  0  0  0
    3.3809   -1.1270    0.0000 O   0  0  0  0  0  0  0  0  0  0  0  0
    2.6664   -2.3645    0.0000 R#  0  0  0  0  0  0  0  0  0  0  0  0
    0.5230    0.5230    0.0000 R#  0  0  0  0  0  0  0  0  0  0  0  0
    2.6664    0.1105    0.0000 R#  0  0  0  0  0  0  0  0  0  0  0  0
  7  1  1  0
  2  1  1  0
  2  3  1  6
  3  4  1  0
  4  8  1  0
  2  5  1  0
  5  9  1  0
  5  6  2  0
M  RGP  3   7   1   8   3   9   2
V    7 *
V    8 *
V    9 *
M  END
>  <m_name>  (466)
D-2,3-diaminopropanoic acid

>  <symbol>  (466)
D_Dap

>  <m_abbr>  (466)
D_Dap

>  <m_type>  (466)
aa

>  <m_subtype>  (466)
non-natural

>  <m_Rgroups>  (466)
H,OH,H,None

>  <m_RgroupIdx>  (466)
6,8,7,None

>  <m_attachmentPointIdx>  (466)
0,4,3,None

>  <natAnalog>  (466)
X

>  <pdbName>  (466)
DVS

$$$$

     RDKit          2D

 14 13  0  0  0  0  0  0  0  0999 V2000
    5.2882   -4.9755    0.0000 N   0  0  0  0  0  0  0  0  0  0  0  0
    4.7481   -4.3519    0.0000 C   0  0  0  0  0  0  0  0  0  0  0  0
    3.9379   -4.5078    0.0000 C   0  0  0  0  0  0  0  0  0  0  0  0
    3.3979   -3.8842    0.0000 C   0  0  0  0  0  0  0  0  0  0  0  0
    2.5877   -4.0401    0.0000 C   0  0  0  0  0  0  0  0  0  0  0  0
    2.0476   -3.4164    0.0000 C   0  0  0  0  0  0  0  0  0  0  0  0
    1.2375   -3.5724    0.0000 C   0  0  0  0  0  0  0  0  0  0  0  0
    0.6974   -2.9487    0.0000 C   0  0  0  0  0  0  0  0  0  0  0  0
    0.9675   -2.1692    0.0000 O   0  0  0  0  0  0  0  0  0  0  0  0
    5.0181   -3.5724    0.0000 C   0  0  0  0  0  0  0  0  0  0  0  0
    5.8283   -3.4164    0.0000 O   0  0  0  0  0  0  0  0  0  0  0  0
    6.0983   -4.8196    0.0000 R#  0  0  0  0  0  0  0  0  0  0  0  0
   -0.1127   -3.1046    0.0000 R#  0  0  0  0  0  0  0  0  0  0  0  0
    4.4780   -2.9487    0.0000 R#  0  0  0  0  0  0  0  0  0  0  0  0
 12  1  1  0
  2  1  1  0
  2  3  1  1
  3  4  1  0
  4  5  1  0
  5  6  1  0
  6  7  1  0
  7  8  1  0
  8 13  1  0
  8  9  2  0
  2 10  1  0
 10 14  1  0
 10 11  2  0
M  RGP  3  12   1  13   3  14   2
V   12 *
V   13 *
V   14 *
M  END
>  <m_name>  (467)
2-Aminosuberic acid

>  <symbol>  (467)
Asu

>  <m_abbr>  (467)
Asu

>  <m_type>  (467)
aa

>  <m_subtype>  (467)
non-natural

>  <m_Rgroups>  (467)
H,OH,OH,None

>  <m_RgroupIdx>  (467)
11,13,12,None

>  <m_attachmentPointIdx>  (467)
0,9,7,None

>  <natAnalog>  (467)
X

>  <pdbName>  (467)
AS5

$$$$

     RDKit          2D

 11 11  0  0  0  0  0  0  0  0999 V2000
    0.0000    3.3000    0.0000 C   0  0  0  0  0  0  0  0  0  0  0  0
    0.7145    3.7125    0.0000 O   0  0  0  0  0  0  0  0  0  0  0  0
    0.0000    2.4750    0.0000 O   0  0  0  0  0  0  0  0  0  0  0  0
    0.7145    2.0625    0.0000 C   0  0  0  0  0  0  0  0  0  0  0  0
    0.7145    1.2375    0.0000 C   0  0  0  0  0  0  0  0  0  0  0  0
    1.4289    0.8250    0.0000 C   0  0  0  0  0  0  0  0  0  0  0  0
    1.4289    0.0000    0.0000 C   0  0  0  0  0  0  0  0  0  0  0  0
    0.7145   -0.4125    0.0000 C   0  0  0  0  0  0  0  0  0  0  0  0
    0.0000    0.0000    0.0000 C   0  0  0  0  0  0  0  0  0  0  0  0
    0.0000    0.8250    0.0000 C   0  0  0  0  0  0  0  0  0  0  0  0
   -0.7145    3.7125    0.0000 R#  0  0  0  0  0  0  0  0  0  0  0  0
 11  1  1  0
  1  2  2  0
  1  3  1  0
  3  4  1  0
  4  5  1  0
  5  6  2  0
  6  7  1  0
  7  8  2  0
  8  9  1  0
  9 10  2  0
  5 10  1  0
M  RGP  1  11   2
V   11 *
M  END
>  <m_name>  (468)
Carboxybenzyl

>  <symbol>  (468)
Cbz

>  <m_abbr>  (468)
Cbz

>  <m_type>  (468)
aa

>  <m_subtype>  (468)
aa

>  <m_Rgroups>  (468)
None,OH,None,None

>  <m_RgroupIdx>  (468)
None,10,None,None

>  <m_attachmentPointIdx>  (468)
None,0,None,None

>  <natAnalog>  (468)
X

>  <pdbName>  (468)
CBS

$$$$

     RDKit          2D

  3  2  0  0  0  0  0  0  0  0999 V2000
    1.2375   -0.7145    0.0000 C   0  0  0  0  0  0  0  0  0  0  0  0
    1.9520   -1.1270    0.0000 C   0  0  0  0  0  0  0  0  0  0  0  0
    2.6664   -0.7145    0.0000 R#  0  0  0  0  0  0  0  0  0  0  0  0
  1  2  1  0
  2  3  1  0
M  RGP  1   3   1
V    3 *
M  END
>  <m_name>  (469)
C-Terminal ethyl

>  <symbol>  (469)
_Et

>  <m_abbr>  (469)
_Et

>  <m_type>  (469)
aa

>  <m_subtype>  (469)
aa

>  <m_Rgroups>  (469)
H,None,None,None

>  <m_RgroupIdx>  (469)
2,None,None,None

>  <m_attachmentPointIdx>  (469)
1,None,None,None

>  <natAnalog>  (469)
X

>  <pdbName>  (469)
ETJ

$$$$

     RDKit          2D

  4  3  0  0  0  0  0  0  0  0999 V2000
    2.0625   -0.7145    0.0000 C   0  0  0  0  0  0  0  0  0  0  0  0
    1.2375   -0.7145    0.0000 C   0  0  0  0  0  0  0  0  0  0  0  0
    0.8250    0.0000    0.0000 N   0  0  0  0  0  0  0  0  0  0  0  0
    0.0000    0.0000    0.0000 R#  0  0  0  0  0  0  0  0  0  0  0  0
  1  2  1  0
  2  3  1  0
  3  4  1  0
M  RGP  1   4   1
V    4 *
M  END
>  <m_name>  (470)
Ethanamine

>  <symbol>  (470)
NHEt

>  <m_abbr>  (470)
NHEt

>  <m_type>  (470)
aa

>  <m_subtype>  (470)
aa

>  <m_Rgroups>  (470)
H,None,None,None

>  <m_RgroupIdx>  (470)
3,None,None,None

>  <m_attachmentPointIdx>  (470)
2,None,None,None

>  <natAnalog>  (470)
X

>  <pdbName>  (470)
NHA

$$$$

     RDKit          2D

  4  3  0  0  0  0  0  0  0  0999 V2000
    2.0625   -0.7145    0.0000 C   0  0  0  0  0  0  0  0  0  0  0  0
    1.2375   -0.7145    0.0000 C   0  0  0  0  0  0  0  0  0  0  0  0
    0.8250    0.0000    0.0000 O   0  0  0  0  0  0  0  0  0  0  0  0
    0.0000    0.0000    0.0000 R#  0  0  0  0  0  0  0  0  0  0  0  0
  1  2  1  0
  2  3  1  0
  3  4  1  0
M  RGP  1   4   1
V    4 *
M  END
>  <m_name>  (471)
Ethanol

>  <symbol>  (471)
OEt

>  <m_abbr>  (471)
OEt

>  <m_type>  (471)
aa

>  <m_subtype>  (471)
aa

>  <m_Rgroups>  (471)
H,None,None,None

>  <m_RgroupIdx>  (471)
3,None,None,None

>  <m_attachmentPointIdx>  (471)
2,None,None,None

>  <natAnalog>  (471)
X

>  <pdbName>  (471)
OEI

$$$$

     RDKit          2D

  3  2  0  0  0  0  0  0  0  0999 V2000
    1.2375   -0.7145    0.0000 C   0  0  0  0  0  0  0  0  0  0  0  0
    1.9520   -1.1270    0.0000 O   0  0  0  0  0  0  0  0  0  0  0  0
    2.6664   -0.7145    0.0000 R#  0  0  0  0  0  0  0  0  0  0  0  0
  1  2  1  0
  2  3  1  0
M  RGP  1   3   1
V    3 *
M  END
>  <m_name>  (472)
C-Terminal methanol

>  <symbol>  (472)
_OMe

>  <m_abbr>  (472)
_OMe

>  <m_type>  (472)
aa

>  <m_subtype>  (472)
aa

>  <m_Rgroups>  (472)
H,None,None,None

>  <m_RgroupIdx>  (472)
2,None,None,None

>  <m_attachmentPointIdx>  (472)
1,None,None,None

>  <natAnalog>  (472)
X

>  <pdbName>  (472)
OML

$$$$

     RDKit          2D

  6  5  0  0  0  0  0  0  0  0999 V2000
    1.6500   -1.4289    0.0000 C   0  0  0  0  0  0  0  0  0  0  0  0
    1.2375   -0.7145    0.0000 C   0  0  0  0  0  0  0  0  0  0  0  0
    1.9520   -0.3020    0.0000 C   0  0  0  0  0  0  0  0  0  0  0  0
    0.5230   -1.1270    0.0000 C   0  0  0  0  0  0  0  0  0  0  0  0
    0.8250    0.0000    0.0000 O   0  0  0  0  0  0  0  0  0  0  0  0
    0.0000    0.0000    0.0000 R#  0  0  0  0  0  0  0  0  0  0  0  0
  1  2  1  0
  2  3  1  0
  2  4  1  0
  2  5  1  0
  5  6  1  0
M  RGP  1   6   1
V    6 *
M  END
>  <m_name>  (473)
O-tert-Butyl

>  <symbol>  (473)
OtBu

>  <m_abbr>  (473)
OtBu

>  <m_type>  (473)
aa

>  <m_subtype>  (473)
aa

>  <m_Rgroups>  (473)
H,None,None,None

>  <m_RgroupIdx>  (473)
5,None,None,None

>  <m_attachmentPointIdx>  (473)
4,None,None,None

>  <natAnalog>  (473)
X

>  <pdbName>  (473)
OTI

$$$$

     RDKit          2D

 11 11  0  0  0  0  0  0  0  0999 V2000
    0.7145    2.0625    0.0000 C   0  0  0  0  0  0  0  0  0  0  0  0
    0.7145    1.2375    0.0000 C   0  0  0  0  0  0  0  0  0  0  0  0
    1.4289    0.8250    0.0000 C   0  0  0  0  0  0  0  0  0  0  0  0
    1.4289    0.0000    0.0000 C   0  0  0  0  0  0  0  0  0  0  0  0
    0.7145   -0.4125    0.0000 C   0  0  0  0  0  0  0  0  0  0  0  0
    0.0000    0.0000    0.0000 C   0  0  0  0  0  0  0  0  0  0  0  0
    0.0000    0.8250    0.0000 C   0  0  0  0  0  0  0  0  0  0  0  0
    0.7145   -1.2375    0.0000 S   0  0  0  0  0  0  0  0  0  0  0  0
   -0.1105   -1.2375    0.0000 O   0  0  0  0  0  0  0  0  0  0  0  0
    1.5395   -1.2375    0.0000 O   0  0  0  0  0  0  0  0  0  0  0  0
    0.7145   -2.0625    0.0000 R#  0  0  0  0  0  0  0  0  0  0  0  0
  1  2  1  0
  2  3  2  0
  3  4  1  0
  4  5  2  0
  5  6  1  0
  6  7  2  0
  2  7  1  0
  5  8  1  0
  8 11  1  0
  8  9  2  0
  8 10  2  0
M  RGP  1  11   2
V   11 *
M  END
>  <m_name>  (474)
Tosyl

>  <symbol>  (474)
Tos

>  <m_abbr>  (474)
Tos

>  <m_type>  (474)
aa

>  <m_subtype>  (474)
aa

>  <m_Rgroups>  (474)
None,OH,None,None

>  <m_RgroupIdx>  (474)
None,10,None,None

>  <m_attachmentPointIdx>  (474)
None,7,None,None

>  <natAnalog>  (474)
X

>  <pdbName>  (474)
TOO

$$$$

     RDKit          2D

  9  9  0  0  0  0  0  0  0  0999 V2000
    0.5678    1.1143    0.0000 N   0  0  0  0  0  0  0  0  0  0  0  0
    1.2352    0.6294    0.0000 C   0  0  0  0  0  0  0  0  0  0  0  0
    0.9803   -0.1553    0.0000 S   0  0  0  0  0  0  0  0  0  0  0  0
    0.1553   -0.1553    0.0000 C   0  0  0  0  0  0  0  0  0  0  0  0
   -0.0997    0.6294    0.0000 C   0  0  0  0  0  0  0  0  0  0  0  0
   -0.8843    0.8843    0.0000 C   0  0  0  0  0  0  0  0  0  0  0  0
   -1.0558    1.6913    0.0000 O   0  0  0  0  0  0  0  0  0  0  0  0
    0.5678    1.9393    0.0000 R#  0  0  0  0  0  0  0  0  0  0  0  0
   -1.4974    0.3323    0.0000 R#  0  0  0  0  0  0  0  0  0  0  0  0
  8  1  1  0
  1  2  1  0
  2  3  1  0
  3  4  1  0
  5  4  1  0
  5  1  1  0
  5  6  1  6
  6  9  1  0
  6  7  2  0
M  RGP  2   8   1   9   2
V    8 *
V    9 *
M  END
>  <m_name>  (475)
(4S)-1,3-thiazolidine-4-carboxylic acid

>  <symbol>  (475)
D_Thz

>  <m_abbr>  (475)
D_Thz

>  <m_type>  (475)
aa

>  <m_subtype>  (475)
non-natural

>  <m_Rgroups>  (475)
H,OH,None,None

>  <m_RgroupIdx>  (475)
7,8,None,None

>  <m_attachmentPointIdx>  (475)
0,5,None,None

>  <natAnalog>  (475)
X

>  <pdbName>  (475)
DVT

$$$$

     RDKit          2D

 18 20  0  0  0  0  0  0  0  0999 V2000
    1.2195    3.5730    0.0000 C   0  0  0  0  0  0  0  0  0  0  0  0
    1.9339    3.9855    0.0000 O   0  0  0  0  0  0  0  0  0  0  0  0
    1.2195    2.7480    0.0000 O   0  0  0  0  0  0  0  0  0  0  0  0
    1.9339    2.3355    0.0000 C   0  0  0  0  0  0  0  0  0  0  0  0
    1.9339    1.5105    0.0000 C   0  0  0  0  0  0  0  0  0  0  0  0
    2.6014    1.0256    0.0000 C   0  0  0  0  0  0  0  0  0  0  0  0
    3.4084    1.1971    0.0000 C   0  0  0  0  0  0  0  0  0  0  0  0
    3.9604    0.5840    0.0000 C   0  0  0  0  0  0  0  0  0  0  0  0
    3.7054   -0.2006    0.0000 C   0  0  0  0  0  0  0  0  0  0  0  0
    2.8985   -0.3721    0.0000 C   0  0  0  0  0  0  0  0  0  0  0  0
    2.3464    0.2410    0.0000 C   0  0  0  0  0  0  0  0  0  0  0  0
    1.5214    0.2410    0.0000 C   0  0  0  0  0  0  0  0  0  0  0  0
    0.9694   -0.3721    0.0000 C   0  0  0  0  0  0  0  0  0  0  0  0
    0.1624   -0.2006    0.0000 C   0  0  0  0  0  0  0  0  0  0  0  0
   -0.0925    0.5840    0.0000 C   0  0  0  0  0  0  0  0  0  0  0  0
    0.4595    1.1971    0.0000 C   0  0  0  0  0  0  0  0  0  0  0  0
    1.2665    1.0256    0.0000 C   0  0  0  0  0  0  0  0  0  0  0  0
    0.5050    3.9855    0.0000 R#  0  0  0  0  0  0  0  0  0  0  0  0
 18  1  1  0
  1  2  2  0
  1  3  1  0
  3  4  1  0
  4  5  1  0
  5  6  1  0
  6  7  2  0
  7  8  1  0
  8  9  2  0
  9 10  1  0
 10 11  2  0
  6 11  1  0
 11 12  1  0
 12 13  2  0
 13 14  1  0
 14 15  2  0
 15 16  1  0
 16 17  2  0
  5 17  1  0
 12 17  1  0
M  RGP  1  18   2
V   18 *
M  END
>  <m_name>  (476)
Fluorenylmethoxycarbonyl

>  <symbol>  (476)
fmoc

>  <m_abbr>  (476)
fmoc

>  <m_type>  (476)
aa

>  <m_subtype>  (476)
aa

>  <m_Rgroups>  (476)
None,OH,None,None

>  <m_RgroupIdx>  (476)
None,17,None,None

>  <m_attachmentPointIdx>  (476)
None,0,None,None

>  <natAnalog>  (476)
X

>  <pdbName>  (476)
FM3

$$$$

     RDKit          2D

  7  6  0  0  0  0  0  0  0  0999 V2000
    2.0625    0.7145    0.0000 C   0  0  0  0  0  0  0  0  0  0  0  0
    1.2375    0.7145    0.0000 C   0  0  0  0  0  0  0  0  0  0  0  0
    0.8250    1.4289    0.0000 S   0  0  0  0  0  0  0  0  0  0  0  0
    0.8250    0.0000    0.0000 C   0  0  0  0  0  0  0  0  0  0  0  0
    0.0000    0.0000    0.0000 O   0  0  0  0  0  0  0  0  0  0  0  0
    1.2375    2.1434    0.0000 R#  0  0  0  0  0  0  0  0  0  0  0  0
    1.2375   -0.7145    0.0000 R#  0  0  0  0  0  0  0  0  0  0  0  0
  2  1  1  1
  2  3  1  0
  3  6  1  0
  2  4  1  0
  4  7  1  0
  4  5  2  0
M  RGP  2   6   3   7   2
V    6 *
V    7 *
M  END
>  <m_name>  (477)
(S)-2-Mercaptopropanoic acid

>  <symbol>  (477)
Mpa

>  <m_abbr>  (477)
Mpa

>  <m_type>  (477)
aa

>  <m_subtype>  (477)
aa

>  <m_Rgroups>  (477)
None,OH,None,None

>  <m_RgroupIdx>  (477)
None,6,5,None

>  <m_attachmentPointIdx>  (477)
None,3,2,None

>  <natAnalog>  (477)
X

>  <pdbName>  (477)
MPF

$$$$

     RDKit          2D

  6  5  0  0  0  0  0  0  0  0999 V2000
    1.2375    2.1434    0.0000 C   0  0  0  0  0  0  0  0  0  0  0  0
    0.8250    1.4289    0.0000 C   0  0  0  0  0  0  0  0  0  0  0  0
    1.2375    0.7145    0.0000 C   0  0  0  0  0  0  0  0  0  0  0  0
    0.8250    0.0000    0.0000 C   0  0  0  0  0  0  0  0  0  0  0  0
    0.0000    0.0000    0.0000 O   0  0  0  0  0  0  0  0  0  0  0  0
    1.2375   -0.7145    0.0000 R#  0  0  0  0  0  0  0  0  0  0  0  0
  1  2  1  0
  2  3  1  0
  3  4  1  0
  4  6  1  0
  4  5  2  0
M  RGP  1   6   2
V    6 *
M  END
>  <m_name>  (478)
Butanoic acid

>  <symbol>  (478)
Bua

>  <m_abbr>  (478)
Bua

>  <m_type>  (478)
aa

>  <m_subtype>  (478)
aa

>  <m_Rgroups>  (478)
None,OH,None,None

>  <m_RgroupIdx>  (478)
None,5,None,None

>  <m_attachmentPointIdx>  (478)
None,3,None,None

>  <natAnalog>  (478)
X

>  <pdbName>  (478)
BUS

$$$$

     RDKit          2D

  5  4  0  0  0  0  0  0  0  0999 V2000
    0.8250    1.4289    0.0000 O   0  0  0  0  0  0  0  0  0  0  0  0
    1.2375    0.7145    0.0000 C   0  0  0  0  0  0  0  0  0  0  0  0
    0.8250    0.0000    0.0000 C   0  0  0  0  0  0  0  0  0  0  0  0
    0.0000    0.0000    0.0000 O   0  0  0  0  0  0  0  0  0  0  0  0
    1.2375   -0.7145    0.0000 R#  0  0  0  0  0  0  0  0  0  0  0  0
  1  2  1  0
  2  3  1  0
  3  5  1  0
  3  4  2  0
M  RGP  1   5   2
V    5 *
M  END
>  <m_name>  (479)
Glycolic acid

>  <symbol>  (479)
Glc

>  <m_abbr>  (479)
Glc

>  <m_type>  (479)
aa

>  <m_subtype>  (479)
aa

>  <m_Rgroups>  (479)
None,OH,None,None

>  <m_RgroupIdx>  (479)
None,4,None,None

>  <m_attachmentPointIdx>  (479)
None,2,None,None

>  <natAnalog>  (479)
X

>  <pdbName>  (479)
GAY

$$$$

     RDKit          2D

  6  5  0  0  0  0  0  0  0  0999 V2000
    1.2375    2.1434    0.0000 S   0  0  0  0  0  0  0  0  0  0  0  0
    0.8250    1.4289    0.0000 C   0  0  0  0  0  0  0  0  0  0  0  0
    1.2375    0.7145    0.0000 C   0  0  0  0  0  0  0  0  0  0  0  0
    0.8250    0.0000    0.0000 C   0  0  0  0  0  0  0  0  0  0  0  0
    0.0000    0.0000    0.0000 O   0  0  0  0  0  0  0  0  0  0  0  0
    1.2375   -0.7145    0.0000 R#  0  0  0  0  0  0  0  0  0  0  0  0
  1  2  1  0
  2  3  1  0
  3  4  1  0
  4  6  1  0
  4  5  2  0
M  RGP  1   6   2
V    6 *
M  END
>  <m_name>  (480)
Deamino-Cysteine

>  <symbol>  (480)
deamino_Cys

>  <m_abbr>  (480)
deamino_Cys

>  <m_type>  (480)
aa

>  <m_subtype>  (480)
aa

>  <m_Rgroups>  (480)
None,OH,None,None

>  <m_RgroupIdx>  (480)
None,5,None,None

>  <m_attachmentPointIdx>  (480)
None,3,None,None

>  <natAnalog>  (480)
C

>  <pdbName>  (480)
DVU

$$$$

     RDKit          2D

  8  7  0  0  0  0  0  0  0  0999 V2000
    1.7605    1.8414    0.0000 O   0  0  0  0  0  0  0  0  0  0  0  0
    2.4750    1.4289    0.0000 C   0  0  0  0  0  0  0  0  0  0  0  0
    2.4750    0.6039    0.0000 O   0  0  0  0  0  0  0  0  0  0  0  0
    3.1895    1.8414    0.0000 C   0  0  0  0  0  0  0  0  0  0  0  0
    3.9039    1.4289    0.0000 C   0  0  0  0  0  0  0  0  0  0  0  0
    4.6184    1.8414    0.0000 C   0  0  0  0  0  0  0  0  0  0  0  0
    5.3329    1.4289    0.0000 N   0  0  0  0  0  0  0  0  0  0  0  0
    6.0474    1.8414    0.0000 R#  0  0  0  0  0  0  0  0  0  0  0  0
  1  2  1  0
  2  3  2  0
  2  4  1  0
  4  5  1  0
  5  6  1  0
  6  7  1  0
  7  8  1  0
M  RGP  1   8   1
V    8 *
M  END
>  <m_name>  (481)
4-aminobutanoic acid

>  <symbol>  (481)
deamino_Dab

>  <m_abbr>  (481)
deamino_Dab

>  <m_type>  (481)
aa

>  <m_subtype>  (481)
aa

>  <m_Rgroups>  (481)
H,None,None,None

>  <m_RgroupIdx>  (481)
7,None,None,None

>  <m_attachmentPointIdx>  (481)
6,None,None,None

>  <natAnalog>  (481)
X

>  <pdbName>  (481)
DVV

$$$$

     RDKit          2D

  6  5  0  0  0  0  0  0  0  0999 V2000
    2.0625   -0.7145    0.0000 C   0  0  0  0  0  0  0  0  0  0  0  0
    1.6500   -1.4289    0.0000 O   0  0  0  0  0  0  0  0  0  0  0  0
    1.6500    0.0000    0.0000 C   0  0  0  0  0  0  0  0  0  0  0  0
    0.8250    0.0000    0.0000 C   0  0  0  0  0  0  0  0  0  0  0  0
    0.0000    0.0000    0.0000 N   0  0  0  0  0  0  0  0  0  0  0  0
    2.8875   -0.7145    0.0000 R#  0  0  0  0  0  0  0  0  0  0  0  0
  6  1  1  0
  1  2  2  0
  1  3  1  0
  3  4  1  0
  4  5  3  0
M  RGP  1   6   2
V    6 *
M  END
>  <m_name>  (482)
2-cyanoacetic acid

>  <symbol>  (482)
deamino_Gly_CN

>  <m_abbr>  (482)
deamino_Gly_CN

>  <m_type>  (482)
aa

>  <m_subtype>  (482)
aa

>  <m_Rgroups>  (482)
None,OH,None,None

>  <m_RgroupIdx>  (482)
None,5,None,None

>  <m_attachmentPointIdx>  (482)
None,0,None,None

>  <natAnalog>  (482)
G

>  <pdbName>  (482)
DVY

$$$$

     RDKit          2D

  9  9  0  0  0  0  0  0  0  0999 V2000
   -0.1467    2.3518    0.0000 C   0  0  0  0  0  0  0  0  0  0  0  0
   -0.8612    1.9393    0.0000 O   0  0  0  0  0  0  0  0  0  0  0  0
    0.5678    1.9393    0.0000 C   0  0  0  0  0  0  0  0  0  0  0  0
    0.5678    1.1143    0.0000 C   0  0  0  0  0  0  0  0  0  0  0  0
    1.2352    0.6294    0.0000 C   0  0  0  0  0  0  0  0  0  0  0  0
    0.9803   -0.1553    0.0000 C   0  0  0  0  0  0  0  0  0  0  0  0
    0.1553   -0.1553    0.0000 C   0  0  0  0  0  0  0  0  0  0  0  0
   -0.0997    0.6294    0.0000 C   0  0  0  0  0  0  0  0  0  0  0  0
   -0.1467    3.1768    0.0000 R#  0  0  0  0  0  0  0  0  0  0  0  0
  9  1  1  0
  1  2  2  0
  1  3  1  0
  3  4  1  0
  4  5  1  0
  5  6  1  0
  6  7  1  0
  7  8  1  0
  4  8  1  0
M  RGP  1   9   2
V    9 *
M  END
>  <m_name>  (483)
2-cyclopentylacetic acid

>  <symbol>  (483)
deamino_Gly_cPent

>  <m_abbr>  (483)
deamino_Gly_cPent

>  <m_type>  (483)
aa

>  <m_subtype>  (483)
aa

>  <m_Rgroups>  (483)
None,OH,None,None

>  <m_RgroupIdx>  (483)
None,8,None,None

>  <m_attachmentPointIdx>  (483)
None,0,None,None

>  <natAnalog>  (483)
G

>  <pdbName>  (483)
DWL

$$$$

     RDKit          2D

  6  5  0  0  0  0  0  0  0  0999 V2000
    2.4750   -1.4289    0.0000 O   0  0  0  0  0  0  0  0  0  0  0  0
    2.0625   -0.7145    0.0000 C   0  0  0  0  0  0  0  0  0  0  0  0
    2.4750    0.0000    0.0000 O   0  0  0  0  0  0  0  0  0  0  0  0
    1.2375   -0.7145    0.0000 C   0  0  0  0  0  0  0  0  0  0  0  0
    0.8250    0.0000    0.0000 O   0  0  0  0  0  0  0  0  0  0  0  0
    0.0000    0.0000    0.0000 R#  0  0  0  0  0  0  0  0  0  0  0  0
  1  2  1  0
  2  3  2  0
  2  4  1  0
  4  5  1  0
  5  6  1  0
M  RGP  1   6   1
V    6 *
M  END
>  <m_name>  (484)
2-hydroxyacetic acid

>  <symbol>  (484)
deamino_Gly_OH

>  <m_abbr>  (484)
deamino_Gly_OH

>  <m_type>  (484)
aa

>  <m_subtype>  (484)
aa

>  <m_Rgroups>  (484)
H,None,None,None

>  <m_RgroupIdx>  (484)
5,None,None,None

>  <m_attachmentPointIdx>  (484)
4,None,None,None

>  <natAnalog>  (484)
G

>  <pdbName>  (484)
DWO

$$$$

     RDKit          2D

  9  9  0  0  0  0  0  0  0  0999 V2000
   -0.1467    2.3518    0.0000 C   0  0  0  0  0  0  0  0  0  0  0  0
   -0.8612    1.9393    0.0000 O   0  0  0  0  0  0  0  0  0  0  0  0
    0.5678    1.9393    0.0000 C   0  0  0  0  0  0  0  0  0  0  0  0
    0.5678    1.1143    0.0000 C   0  0  0  0  0  0  0  0  0  0  0  0
    1.2352    0.6294    0.0000 C   0  0  0  0  0  0  0  0  0  0  0  0
    0.9803   -0.1553    0.0000 C   0  0  0  0  0  0  0  0  0  0  0  0
    0.1553   -0.1553    0.0000 C   0  0  0  0  0  0  0  0  0  0  0  0
   -0.0997    0.6294    0.0000 S   0  0  0  0  0  0  0  0  0  0  0  0
   -0.1467    3.1768    0.0000 R#  0  0  0  0  0  0  0  0  0  0  0  0
  9  1  1  0
  1  2  2  0
  1  3  1  0
  3  4  1  0
  4  5  2  0
  5  6  1  0
  6  7  2  0
  7  8  1  0
  4  8  1  0
M  RGP  1   9   2
V    9 *
M  END
>  <m_name>  (485)
2-(thiophen-2-yl)acetic acid

>  <symbol>  (485)
deamino_Gly_thien2yl

>  <m_abbr>  (485)
deamino_Gly_thien2yl

>  <m_type>  (485)
aa

>  <m_subtype>  (485)
aa

>  <m_Rgroups>  (485)
None,OH,None,None

>  <m_RgroupIdx>  (485)
None,8,None,None

>  <m_attachmentPointIdx>  (485)
None,0,None,None

>  <natAnalog>  (485)
G

>  <pdbName>  (485)
DWR

$$$$

     RDKit          2D

 18 19  0  0  0  0  0  0  0  0999 V2000
    2.2428   -2.5916    0.0000 N   0  0  0  0  0  0  0  0  0  0  0  0
    1.4358   -2.7631    0.0000 C   0  0  0  0  0  0  0  0  0  0  0  0
    0.8838   -2.1500    0.0000 C   0  0  0  0  0  0  0  0  0  0  0  0
    1.1387   -1.3654    0.0000 C   0  0  0  0  0  0  0  0  0  0  0  0
    0.6538   -0.6979    0.0000 C   0  0  0  0  0  0  0  0  0  0  0  0
    1.1387   -0.0305    0.0000 N   0  0  0  0  0  0  0  0  0  0  0  0
    0.8838    0.7541    0.0000 C   0  0  0  0  0  0  0  0  0  0  0  0
    0.0768    0.9256    0.0000 O   0  0  0  0  0  0  0  0  0  0  0  0
    1.9233   -0.2854    0.0000 C   0  0  0  0  0  0  0  0  0  0  0  0
    2.6378    0.1271    0.0000 C   0  0  0  0  0  0  0  0  0  0  0  0
    3.3523   -0.2854    0.0000 C   0  0  0  0  0  0  0  0  0  0  0  0
    3.3523   -1.1104    0.0000 C   0  0  0  0  0  0  0  0  0  0  0  0
    2.6378   -1.5229    0.0000 C   0  0  0  0  0  0  0  0  0  0  0  0
    1.9233   -1.1104    0.0000 C   0  0  0  0  0  0  0  0  0  0  0  0
    1.1809   -3.5477    0.0000 C   0  0  0  0  0  0  0  0  0  0  0  0
    1.7329   -4.1608    0.0000 O   0  0  0  0  0  0  0  0  0  0  0  0
    2.7948   -3.2047    0.0000 R#  0  0  0  0  0  0  0  0  0  0  0  0
    0.3739   -3.7192    0.0000 R#  0  0  0  0  0  0  0  0  0  0  0  0
 17  1  1  0
  2  1  1  0
  2  3  1  1
  3  4  1  0
  4  5  2  0
  5  6  1  0
  6  7  1  0
  7  8  2  0
  6  9  1  0
  9 10  2  0
 10 11  1  0
 11 12  2  0
 12 13  1  0
 13 14  2  0
  4 14  1  0
  9 14  1  0
  2 15  1  0
 15 18  1  0
 15 16  2  0
M  RGP  2  17   1  18   2
V   17 *
V   18 *
M  END
>  <m_name>  (486)
(2R)-2-amino-3-(1-formyl-1H-indol-3-yl)propanoic acid

>  <symbol>  (486)
D_Trp_For

>  <m_abbr>  (486)
D_Trp_For

>  <m_type>  (486)
aa

>  <m_subtype>  (486)
non-natural

>  <m_Rgroups>  (486)
H,OH,None,None

>  <m_RgroupIdx>  (486)
16,17,None,None

>  <m_attachmentPointIdx>  (486)
0,14,None,None

>  <natAnalog>  (486)
W

>  <pdbName>  (486)
DWU

$$$$

     RDKit          2D

  5  4  0  0  0  0  0  0  0  0999 V2000
    0.8250    1.4289    0.0000 S   0  0  0  0  0  0  0  0  0  0  0  0
    1.2375    0.7145    0.0000 C   0  0  0  0  0  0  0  0  0  0  0  0
    0.8250    0.0000    0.0000 C   0  0  0  0  0  0  0  0  0  0  0  0
    0.0000    0.0000    0.0000 O   0  0  0  0  0  0  0  0  0  0  0  0
    1.2375   -0.7145    0.0000 R#  0  0  0  0  0  0  0  0  0  0  0  0
  1  2  1  0
  2  3  1  0
  3  5  1  0
  3  4  2  0
M  RGP  1   5   2
V    5 *
M  END
>  <m_name>  (487)
2-sulfanylacetic acid

>  <symbol>  (487)
deamino_Ncy

>  <m_abbr>  (487)
deamino_Ncy

>  <m_type>  (487)
aa

>  <m_subtype>  (487)
aa

>  <m_Rgroups>  (487)
None,OH,None,None

>  <m_RgroupIdx>  (487)
None,4,None,None

>  <m_attachmentPointIdx>  (487)
None,2,None,None

>  <natAnalog>  (487)
X

>  <pdbName>  (487)
DW6

$$$$

     RDKit          2D

 12 12  0  0  0  0  0  0  0  0999 V2000
   -0.7145    3.7125    0.0000 O   0  0  0  0  0  0  0  0  0  0  0  0
    0.0000    3.3000    0.0000 C   0  0  0  0  0  0  0  0  0  0  0  0
    0.7145    3.7125    0.0000 O   0  0  0  0  0  0  0  0  0  0  0  0
    0.0000    2.4750    0.0000 C   0  0  0  0  0  0  0  0  0  0  0  0
    0.7145    2.0625    0.0000 C   0  0  0  0  0  0  0  0  0  0  0  0
    0.7145    1.2375    0.0000 C   0  0  0  0  0  0  0  0  0  0  0  0
    1.4289    0.8250    0.0000 C   0  0  0  0  0  0  0  0  0  0  0  0
    1.4289    0.0000    0.0000 C   0  0  0  0  0  0  0  0  0  0  0  0
    0.7145   -0.4125    0.0000 C   0  0  0  0  0  0  0  0  0  0  0  0
    0.0000    0.0000    0.0000 C   0  0  0  0  0  0  0  0  0  0  0  0
    0.0000    0.8250    0.0000 C   0  0  0  0  0  0  0  0  0  0  0  0
   -0.7145    2.0625    0.0000 R#  0  0  0  0  0  0  0  0  0  0  0  0
  1  2  1  0
  2  3  2  0
  2  4  1  0
  4 12  1  0
  4  5  1  0
  5  6  1  0
  6  7  2  0
  7  8  1  0
  8  9  2  0
  9 10  1  0
 10 11  2  0
  6 11  1  0
M  RGP  1  12   2
V   12 *
M  END
>  <m_name>  (488)
Deamino-Phenylalanine

>  <symbol>  (488)
deamino_Phe

>  <m_abbr>  (488)
deamino_Phe

>  <m_type>  (488)
aa

>  <m_subtype>  (488)
aa

>  <m_Rgroups>  (488)
None,OH,None,None

>  <m_RgroupIdx>  (488)
None,11,None,None

>  <m_attachmentPointIdx>  (488)
None,3,None,None

>  <natAnalog>  (488)
F

>  <pdbName>  (488)
DXI

$$$$

     RDKit          2D

 12 12  0  0  0  0  0  0  0  0999 V2000
    0.7145    2.0625    0.0000 C   0  0  0  0  0  0  0  0  0  0  0  0
    0.7145    1.2375    0.0000 C   0  0  0  0  0  0  0  0  0  0  0  0
    1.4289    0.8250    0.0000 C   0  0  0  0  0  0  0  0  0  0  0  0
    1.4289    0.0000    0.0000 C   0  0  0  0  0  0  0  0  0  0  0  0
    2.1434   -0.4125    0.0000 C   0  0  0  0  0  0  0  0  0  0  0  0
    0.7145   -0.4125    0.0000 C   0  0  0  0  0  0  0  0  0  0  0  0
    0.0000    0.0000    0.0000 C   0  0  0  0  0  0  0  0  0  0  0  0
   -0.7145   -0.4125    0.0000 C   0  0  0  0  0  0  0  0  0  0  0  0
   -1.4289    0.0000    0.0000 C   0  0  0  0  0  0  0  0  0  0  0  0
   -1.4289    0.8250    0.0000 O   0  0  0  0  0  0  0  0  0  0  0  0
    0.0000    0.8250    0.0000 C   0  0  0  0  0  0  0  0  0  0  0  0
   -2.1434   -0.4125    0.0000 R#  0  0  0  0  0  0  0  0  0  0  0  0
  1  2  1  0
  2  3  2  0
  3  4  1  0
  4  5  1  0
  4  6  2  0
  6  7  1  0
  7  8  1  0
  8  9  1  0
  9 12  1  0
  9 10  2  0
  7 11  2  0
  2 11  1  0
M  RGP  1  12   2
V   12 *
M  END
>  <m_name>  (489)
2-(3,5-dimethylphenyl)acetic acid

>  <symbol>  (489)
deamino_Phg_35diMe

>  <m_abbr>  (489)
deamino_Phg_35diMe

>  <m_type>  (489)
aa

>  <m_subtype>  (489)
aa

>  <m_Rgroups>  (489)
None,OH,None,None

>  <m_RgroupIdx>  (489)
None,11,None,None

>  <m_attachmentPointIdx>  (489)
None,8,None,None

>  <natAnalog>  (489)
F

>  <pdbName>  (489)
DYI

$$$$

     RDKit          2D

  8  7  0  0  0  0  0  0  0  0999 V2000
   -0.1914    0.7145    0.0000 C   0  0  0  0  0  0  0  0  0  0  0  0
    0.5230    1.1270    0.0000 C   0  0  0  0  0  0  0  0  0  0  0  0
    0.5230    1.9520    0.0000 C   0  0  0  0  0  0  0  0  0  0  0  0
    1.2375    0.7145    0.0000 C   0  0  0  0  0  0  0  0  0  0  0  0
    1.9520    1.1270    0.0000 C   0  0  0  0  0  0  0  0  0  0  0  0
    2.6664    0.7145    0.0000 C   0  0  0  0  0  0  0  0  0  0  0  0
    2.6664   -0.1105    0.0000 O   0  0  0  0  0  0  0  0  0  0  0  0
    3.3809    1.1270    0.0000 R#  0  0  0  0  0  0  0  0  0  0  0  0
  1  2  1  0
  2  3  1  0
  2  4  1  0
  4  5  1  0
  5  6  1  0
  6  8  1  0
  6  7  2  0
M  RGP  1   8   2
V    8 *
M  END
>  <m_name>  (490)
Deamino-Leucine

>  <symbol>  (490)
deamino_Leu

>  <m_abbr>  (490)
deamino_Leu

>  <m_type>  (490)
aa

>  <m_subtype>  (490)
aa

>  <m_Rgroups>  (490)
None,OH,None,None

>  <m_RgroupIdx>  (490)
None,7,None,None

>  <m_attachmentPointIdx>  (490)
None,5,None,None

>  <natAnalog>  (490)
L

>  <pdbName>  (490)
DYO

$$$$

     RDKit          2D

  6  5  0  0  0  0  0  0  0  0999 V2000
    0.8250    1.4289    0.0000 C   0  0  0  0  0  0  0  0  0  0  0  0
    1.2375    0.7145    0.0000 C   0  0  0  0  0  0  0  0  0  0  0  0
    2.0625    0.7145    0.0000 O   0  0  0  0  0  0  0  0  0  0  0  0
    0.8250    0.0000    0.0000 C   0  0  0  0  0  0  0  0  0  0  0  0
    0.0000    0.0000    0.0000 O   0  0  0  0  0  0  0  0  0  0  0  0
    1.2375   -0.7145    0.0000 R#  0  0  0  0  0  0  0  0  0  0  0  0
  2  1  1  1
  2  3  1  0
  2  4  1  0
  4  6  1  0
  4  5  2  0
M  RGP  1   6   2
V    6 *
M  END
>  <m_name>  (491)
(2R)-2-hydroxypropanoic acid

>  <symbol>  (491)
D_OAla

>  <m_abbr>  (491)
D_OAla

>  <m_type>  (491)
aa

>  <m_subtype>  (491)
aa

>  <m_Rgroups>  (491)
None,OH,None,None

>  <m_RgroupIdx>  (491)
None,5,None,None

>  <m_attachmentPointIdx>  (491)
None,3,None,None

>  <natAnalog>  (491)
A

>  <pdbName>  (491)
DYQ

$$$$

     RDKit          2D

  6  5  0  0  0  0  0  0  0  0999 V2000
    0.8250    1.4289    0.0000 C   0  0  0  0  0  0  0  0  0  0  0  0
    1.2375    0.7145    0.0000 C   0  0  0  0  0  0  0  0  0  0  0  0
    2.0625    0.7145    0.0000 O   0  0  0  0  0  0  0  0  0  0  0  0
    0.8250    0.0000    0.0000 C   0  0  0  0  0  0  0  0  0  0  0  0
    0.0000    0.0000    0.0000 O   0  0  0  0  0  0  0  0  0  0  0  0
    1.2375   -0.7145    0.0000 R#  0  0  0  0  0  0  0  0  0  0  0  0
  2  1  1  6
  2  3  1  0
  2  4  1  0
  4  6  1  0
  4  5  2  0
M  RGP  1   6   2
V    6 *
M  END
>  <m_name>  (492)
(2S)-2-hydroxypropanoic acid

>  <symbol>  (492)
L_OAla

>  <m_abbr>  (492)
L_OAla

>  <m_type>  (492)
aa

>  <m_subtype>  (492)
aa

>  <m_Rgroups>  (492)
None,OH,None,None

>  <m_RgroupIdx>  (492)
None,5,None,None

>  <m_attachmentPointIdx>  (492)
None,3,None,None

>  <natAnalog>  (492)
A

>  <pdbName>  (492)
LOO

$$$$

     RDKit          2D

  8  7  0  0  0  0  0  0  0  0999 V2000
    1.2375    2.1434    0.0000 C   0  0  0  0  0  0  0  0  0  0  0  0
    0.8250    1.4289    0.0000 C   0  0  0  0  0  0  0  0  0  0  0  0
    0.0000    1.4289    0.0000 C   0  0  0  0  0  0  0  0  0  0  0  0
    1.2375    0.7145    0.0000 C   0  0  0  0  0  0  0  0  0  0  0  0
    2.0625    0.7145    0.0000 O   0  0  0  0  0  0  0  0  0  0  0  0
    0.8250    0.0000    0.0000 C   0  0  0  0  0  0  0  0  0  0  0  0
    0.0000    0.0000    0.0000 O   0  0  0  0  0  0  0  0  0  0  0  0
    1.2375   -0.7145    0.0000 R#  0  0  0  0  0  0  0  0  0  0  0  0
  1  2  1  0
  2  3  1  0
  4  2  1  0
  4  5  1  6
  4  6  1  0
  6  8  1  0
  6  7  2  0
M  RGP  1   8   2
V    8 *
M  END
>  <m_name>  (493)
(2S)-2-hydroxy-3-methylbutanoic acid

>  <symbol>  (493)
L_OVal

>  <m_abbr>  (493)
L_OVal

>  <m_type>  (493)
aa

>  <m_subtype>  (493)
aa

>  <m_Rgroups>  (493)
None,OH,None,None

>  <m_RgroupIdx>  (493)
None,7,None,None

>  <m_attachmentPointIdx>  (493)
None,5,None,None

>  <natAnalog>  (493)
V

>  <pdbName>  (493)
LO0

$$$$

     RDKit          2D

  9  9  0  0  0  0  0  0  0  0999 V2000
    0.0000    2.4750    0.0000 N   0  0  0  0  0  0  0  0  0  0  0  0
    0.7145    2.0625    0.0000 C   0  0  0  0  0  0  0  0  0  0  0  0
    0.7145    1.2375    0.0000 C   0  0  0  0  0  0  0  0  0  0  0  0
    1.4289    0.8250    0.0000 C   0  0  0  0  0  0  0  0  0  0  0  0
    1.4289    0.0000    0.0000 C   0  0  0  0  0  0  0  0  0  0  0  0
    0.7145   -0.4125    0.0000 C   0  0  0  0  0  0  0  0  0  0  0  0
    0.0000    0.0000    0.0000 C   0  0  0  0  0  0  0  0  0  0  0  0
    0.0000    0.8250    0.0000 C   0  0  0  0  0  0  0  0  0  0  0  0
    0.0000    3.3000    0.0000 R#  0  0  0  0  0  0  0  0  0  0  0  0
  9  1  1  0
  1  2  1  0
  2  3  1  0
  3  4  2  0
  4  5  1  0
  5  6  2  0
  6  7  1  0
  7  8  2  0
  3  8  1  0
M  RGP  1   9   2
V    9 *
M  END
>  <m_name>  (494)
N-Terminal 1-phenylmethanamine

>  <symbol>  (494)
NHBn_

>  <m_abbr>  (494)
NHBn_

>  <m_type>  (494)
aa

>  <m_subtype>  (494)
aa

>  <m_Rgroups>  (494)
None,OH,None,None

>  <m_RgroupIdx>  (494)
None,8,None,None

>  <m_attachmentPointIdx>  (494)
None,0,None,None

>  <natAnalog>  (494)
X

>  <pdbName>  (494)
NHZ

$$$$

     RDKit          2D

  9  9  0  0  0  0  0  0  0  0999 V2000
    0.7145    2.0625    0.0000 C   0  0  0  0  0  0  0  0  0  0  0  0
    1.4289    2.4750    0.0000 O   0  0  0  0  0  0  0  0  0  0  0  0
    0.7145    1.2375    0.0000 C   0  0  0  0  0  0  0  0  0  0  0  0
    1.4289    0.8250    0.0000 C   0  0  0  0  0  0  0  0  0  0  0  0
    1.4289    0.0000    0.0000 C   0  0  0  0  0  0  0  0  0  0  0  0
    0.7145   -0.4125    0.0000 C   0  0  0  0  0  0  0  0  0  0  0  0
    0.0000    0.0000    0.0000 C   0  0  0  0  0  0  0  0  0  0  0  0
    0.0000    0.8250    0.0000 C   0  0  0  0  0  0  0  0  0  0  0  0
    0.0000    2.4750    0.0000 R#  0  0  0  0  0  0  0  0  0  0  0  0
  9  1  1  0
  1  2  2  0
  1  3  1  0
  3  4  2  0
  4  5  1  0
  5  6  2  0
  6  7  1  0
  7  8  2  0
  3  8  1  0
M  RGP  1   9   2
V    9 *
M  END
>  <m_name>  (495)
Benzaldehyde

>  <symbol>  (495)
Bz

>  <m_abbr>  (495)
Bz

>  <m_type>  (495)
aa

>  <m_subtype>  (495)
aa

>  <m_Rgroups>  (495)
None,OH,None,None

>  <m_RgroupIdx>  (495)
None,8,None,None

>  <m_attachmentPointIdx>  (495)
None,0,None,None

>  <natAnalog>  (495)
X

>  <pdbName>  (495)
BZL

$$$$

     RDKit          2D

  3  2  0  0  0  0  0  0  0  0999 V2000
    1.2375   -0.7145    0.0000 C   0  0  0  0  0  0  0  0  0  0  0  0
    1.9520   -1.1270    0.0000 C   0  0  0  0  0  0  0  0  0  0  0  0
    2.6664   -0.7145    0.0000 R#  0  0  0  0  0  0  0  0  0  0  0  0
  1  2  1  0
  2  3  1  0
M  RGP  1   3   2
V    3 *
M  END
>  <m_name>  (496)
N-Terminal ethyl

>  <symbol>  (496)
Et_

>  <m_abbr>  (496)
Et_

>  <m_type>  (496)
aa

>  <m_subtype>  (496)
aa

>  <m_Rgroups>  (496)
None,OH,None,None

>  <m_RgroupIdx>  (496)
None,2,None,None

>  <m_attachmentPointIdx>  (496)
None,1,None,None

>  <natAnalog>  (496)
X

>  <pdbName>  (496)
ETL

$$$$

     RDKit          2D

  2  1  0  0  0  0  0  0  0  0999 V2000
    0.8250    0.0000    0.0000 C   0  0  0  0  0  0  0  0  0  0  0  0
    0.0000    0.0000    0.0000 R#  0  0  0  0  0  0  0  0  0  0  0  0
  1  2  1  0
M  RGP  1   2   2
V    2 *
M  END
>  <m_name>  (497)
N-Terminal methyl

>  <symbol>  (497)
Me_

>  <m_abbr>  (497)
Me_

>  <m_type>  (497)
aa

>  <m_subtype>  (497)
aa

>  <m_Rgroups>  (497)
None,OH,None,None

>  <m_RgroupIdx>  (497)
None,1,None,None

>  <m_attachmentPointIdx>  (497)
None,0,None,None

>  <natAnalog>  (497)
X

>  <pdbName>  (497)
MG6

$$$$

     RDKit          2D

 16 16  0  0  0  0  0  0  0  0999 V2000
    0.0000    3.3000    0.0000 C   0  0  0  0  0  0  0  0  0  0  0  0
    0.0000    2.4750    0.0000 C   0  0  0  0  0  0  0  0  0  0  0  0
    0.7145    2.0625    0.0000 O   0  0  0  0  0  0  0  0  0  0  0  0
    0.7145    1.2375    0.0000 C   0  0  0  0  0  0  0  0  0  0  0  0
    1.4289    0.8250    0.0000 C   0  0  0  0  0  0  0  0  0  0  0  0
    1.4289    0.0000    0.0000 C   0  0  0  0  0  0  0  0  0  0  0  0
    0.7145   -0.4125    0.0000 C   0  0  0  0  0  0  0  0  0  0  0  0
    0.7145   -1.2375    0.0000 C   0  0  0  0  0  0  0  0  0  0  0  0
    1.4289   -1.6500    0.0000 C   0  0  0  0  0  0  0  0  0  0  0  0
    1.4289   -2.4750    0.0000 N   0  0  0  0  0  0  0  0  0  0  0  0
    2.1434   -1.2375    0.0000 C   0  0  0  0  0  0  0  0  0  0  0  0
    2.1434   -0.4125    0.0000 O   0  0  0  0  0  0  0  0  0  0  0  0
    0.0000    0.0000    0.0000 C   0  0  0  0  0  0  0  0  0  0  0  0
    0.0000    0.8250    0.0000 C   0  0  0  0  0  0  0  0  0  0  0  0
    2.1434   -2.8875    0.0000 R#  0  0  0  0  0  0  0  0  0  0  0  0
    2.8579   -1.6500    0.0000 R#  0  0  0  0  0  0  0  0  0  0  0  0
  1  2  1  0
  2  3  1  0
  3  4  1  0
  4  5  2  0
  5  6  1  0
  6  7  2  0
  7  8  1  0
  9  8  1  6
  9 10  1  0
 10 15  1  0
  9 11  1  0
 11 16  1  0
 11 12  2  0
  7 13  1  0
 13 14  2  0
  4 14  1  0
M  RGP  2  15   1  16   2
V   15 *
V   16 *
M  END
>  <m_name>  (498)
(2R)-2-amino-3-(4-ethoxyphenyl)propanoic acid

>  <symbol>  (498)
D_Tyr_Et

>  <m_abbr>  (498)
D_Tyr_Et

>  <m_type>  (498)
aa

>  <m_subtype>  (498)
non-natural

>  <m_Rgroups>  (498)
H,OH,None,None

>  <m_RgroupIdx>  (498)
14,15,None,None

>  <m_attachmentPointIdx>  (498)
9,10,None,None

>  <natAnalog>  (498)
Y

>  <pdbName>  (498)
DY0

$$$$

     RDKit          2D

 14 13  0  0  0  0  0  0  0  0999 V2000
   -0.1127   -3.1046    0.0000 C   0  0  0  0  0  0  0  0  0  0  0  0
    0.6974   -2.9487    0.0000 C   0  0  0  0  0  0  0  0  0  0  0  0
    0.9675   -2.1692    0.0000 O   0  0  0  0  0  0  0  0  0  0  0  0
    1.2375   -3.5724    0.0000 N   0  0  0  0  0  0  0  0  0  0  0  0
    2.0476   -3.4164    0.0000 C   0  0  0  0  0  0  0  0  0  0  0  0
    2.5877   -4.0401    0.0000 C   0  0  0  0  0  0  0  0  0  0  0  0
    3.3979   -3.8842    0.0000 C   0  0  0  0  0  0  0  0  0  0  0  0
    3.9379   -4.5078    0.0000 C   0  0  0  0  0  0  0  0  0  0  0  0
    4.7481   -4.3519    0.0000 C   0  0  0  0  0  0  0  0  0  0  0  0
    5.2882   -4.9755    0.0000 N   0  0  0  0  0  0  0  0  0  0  0  0
    5.0181   -3.5724    0.0000 C   0  0  0  0  0  0  0  0  0  0  0  0
    5.8283   -3.4164    0.0000 O   0  0  0  0  0  0  0  0  0  0  0  0
    6.0983   -4.8196    0.0000 R#  0  0  0  0  0  0  0  0  0  0  0  0
    4.4780   -2.9487    0.0000 R#  0  0  0  0  0  0  0  0  0  0  0  0
  1  2  1  0
  2  3  2  0
  2  4  1  0
  4  5  1  0
  5  6  1  0
  6  7  1  0
  7  8  1  0
  9  8  1  1
  9 10  1  0
 10 13  1  0
  9 11  1  0
 11 14  1  0
 11 12  2  0
M  RGP  2  13   1  14   2
V   13 *
V   14 *
M  END
>  <m_name>  (499)
(2S)-2-amino-6-acetamidohexanoic acid

>  <symbol>  (499)
Lys_Ac

>  <m_abbr>  (499)
Lys_Ac

>  <m_type>  (499)
aa

>  <m_subtype>  (499)
non-natural

>  <m_Rgroups>  (499)
H,OH,None,None

>  <m_RgroupIdx>  (499)
12,13,None,None

>  <m_attachmentPointIdx>  (499)
9,10,None,None

>  <natAnalog>  (499)
K

>  <pdbName>  (499)
LY6

$$$$

     RDKit          2D

  3  2  0  0  0  0  0  0  0  0999 V2000
    1.2375   -0.7145    0.0000 C   0  0  0  0  0  0  0  0  0  0  0  0
    1.9520   -1.1270    0.0000 O   0  0  0  0  0  0  0  0  0  0  0  0
    2.6664   -0.7145    0.0000 R#  0  0  0  0  0  0  0  0  0  0  0  0
  1  2  1  0
  2  3  1  0
M  RGP  1   3   2
V    3 *
M  END
>  <m_name>  (500)
N-Terminal methanol

>  <symbol>  (500)
OMe_

>  <m_abbr>  (500)
OMe_

>  <m_type>  (500)
aa

>  <m_subtype>  (500)
aa

>  <m_Rgroups>  (500)
None,OH,None,None

>  <m_RgroupIdx>  (500)
None,2,None,None

>  <m_attachmentPointIdx>  (500)
None,1,None,None

>  <natAnalog>  (500)
X

>  <pdbName>  (500)
OMQ

$$$$

     RDKit          2D

 11 10  0  0  0  0  0  0  0  0999 V2000
    0.8250   -1.4289    0.0000 C   0  0  0  0  0  0  0  0  0  0  0  0
    1.2375   -2.1434    0.0000 O   0  0  0  0  0  0  0  0  0  0  0  0
    2.0625   -2.1434    0.0000 C   0  0  0  0  0  0  0  0  0  0  0  0
    2.4750   -1.4289    0.0000 O   0  0  0  0  0  0  0  0  0  0  0  0
    2.4750   -2.8579    0.0000 C   0  0  0  0  0  0  0  0  0  0  0  0
    3.3000   -2.8579    0.0000 C   0  0  0  0  0  0  0  0  0  0  0  0
    3.7125   -3.5724    0.0000 N   0  0  0  0  0  0  0  0  0  0  0  0
    3.7125   -2.1434    0.0000 C   0  0  0  0  0  0  0  0  0  0  0  0
    4.5375   -2.1434    0.0000 O   0  0  0  0  0  0  0  0  0  0  0  0
    4.5375   -3.5724    0.0000 R#  0  0  0  0  0  0  0  0  0  0  0  0
    3.3000   -1.4289    0.0000 R#  0  0  0  0  0  0  0  0  0  0  0  0
  1  2  1  0
  2  3  1  0
  3  4  2  0
  3  5  1  0
  6  5  1  1
  6  7  1  0
  7 10  1  0
  6  8  1  0
  8 11  1  0
  8  9  2  0
M  RGP  2  10   1  11   2
V   10 *
V   11 *
M  END
>  <m_name>  (501)
(2S)-2-amino-4-methoxy-4-oxobutanoic acid

>  <symbol>  (501)
Asp_OMe

>  <m_abbr>  (501)
Asp_OMe

>  <m_type>  (501)
aa

>  <m_subtype>  (501)
non-natural

>  <m_Rgroups>  (501)
H,OH,None,None

>  <m_RgroupIdx>  (501)
9,10,None,None

>  <m_attachmentPointIdx>  (501)
6,7,None,None

>  <natAnalog>  (501)
D

>  <pdbName>  (501)
AGZ

$$$$

     RDKit          2D

 12 12  0  0  0  0  0  0  0  0999 V2000
    1.4289    2.4750    0.0000 C   0  0  0  0  0  0  0  0  0  0  0  0
    0.7145    2.0625    0.0000 N   0  0  0  0  0  0  0  0  0  0  0  0
    0.0000    2.4750    0.0000 C   0  0  0  0  0  0  0  0  0  0  0  0
    0.7145    1.2375    0.0000 C   0  0  0  0  0  0  0  0  0  0  0  0
    1.4289    0.8250    0.0000 C   0  0  0  0  0  0  0  0  0  0  0  0
    1.4289    0.0000    0.0000 C   0  0  0  0  0  0  0  0  0  0  0  0
    0.7145   -0.4125    0.0000 C   0  0  0  0  0  0  0  0  0  0  0  0
    0.0000    0.0000    0.0000 C   0  0  0  0  0  0  0  0  0  0  0  0
    0.0000    0.8250    0.0000 C   0  0  0  0  0  0  0  0  0  0  0  0
   -0.7145   -0.4125    0.0000 C   0  0  0  0  0  0  0  0  0  0  0  0
   -1.4289    0.0000    0.0000 O   0  0  0  0  0  0  0  0  0  0  0  0
   -0.7145   -1.2375    0.0000 R#  0  0  0  0  0  0  0  0  0  0  0  0
  1  2  1  0
  2  3  1  0
  2  4  1  0
  4  5  2  0
  5  6  1  0
  6  7  2  0
  7  8  1  0
  8  9  2  0
  4  9  1  0
  8 10  1  0
 10 12  1  0
 10 11  2  0
M  RGP  1  12   2
V   12 *
M  END
>  <m_name>  (502)
3-(dimethylamino)benzoic acid

>  <symbol>  (502)
NMe23Abz

>  <m_abbr>  (502)
NMe23Abz

>  <m_type>  (502)
aa

>  <m_subtype>  (502)
non-natural

>  <m_Rgroups>  (502)
None,OH,None,None

>  <m_RgroupIdx>  (502)
None,11,None,None

>  <m_attachmentPointIdx>  (502)
None,9,None,None

>  <natAnalog>  (502)
X

>  <pdbName>  (502)
NMV

$$$$

     RDKit          2D

 13 13  0  0  0  0  0  0  0  0999 V2000
    0.0000    3.3000    0.0000 N   0  0  0  0  0  0  0  0  0  0  0  0
    0.0000    2.4750    0.0000 C   0  0  0  0  0  0  0  0  0  0  0  0
    0.7145    2.0625    0.0000 C   0  0  0  0  0  0  0  0  0  0  0  0
    0.7145    1.2375    0.0000 C   0  0  0  0  0  0  0  0  0  0  0  0
    1.4289    0.8250    0.0000 C   0  0  0  0  0  0  0  0  0  0  0  0
    1.4289    0.0000    0.0000 C   0  0  0  0  0  0  0  0  0  0  0  0
    0.7145   -0.4125    0.0000 C   0  0  0  0  0  0  0  0  0  0  0  0
    0.0000    0.0000    0.0000 C   0  0  0  0  0  0  0  0  0  0  0  0
    0.0000    0.8250    0.0000 C   0  0  0  0  0  0  0  0  0  0  0  0
   -0.7145    2.0625    0.0000 C   0  0  0  0  0  0  0  0  0  0  0  0
   -1.4289    2.4750    0.0000 O   0  0  0  0  0  0  0  0  0  0  0  0
   -0.7145    3.7125    0.0000 R#  0  0  0  0  0  0  0  0  0  0  0  0
   -0.7145    1.2375    0.0000 R#  0  0  0  0  0  0  0  0  0  0  0  0
  1 12  1  0
  1  2  2  3
  2  3  1  0
  3  4  1  0
  4  5  2  0
  5  6  1  0
  6  7  2  0
  7  8  1  0
  8  9  2  0
  4  9  1  0
  2 10  1  0
 10 13  1  0
 10 11  2  0
M  RGP  2  12   1  13   2
V   12 *
V   13 *
M  END
>  <m_name>  (503)
2-amino-3-phenylprop-2-enoic acid

>  <symbol>  (503)
Phe_ab_dehydro

>  <m_abbr>  (503)
Phe_ab_dehydro

>  <m_type>  (503)
aa

>  <m_subtype>  (503)
non-natural

>  <m_Rgroups>  (503)
H,OH,None,None

>  <m_RgroupIdx>  (503)
11,12,None,None

>  <m_attachmentPointIdx>  (503)
0,9,None,None

>  <natAnalog>  (503)
F

>  <pdbName>  (503)
PJF

$$$$

     RDKit          2D

 13 12  0  0  0  0  0  0  0  0999 V2000
    1.0461    1.4289    0.0000 C   0  0  0  0  0  0  0  0  0  0  0  0
    1.7605    1.8414    0.0000 C   0  0  0  0  0  0  0  0  0  0  0  0
    1.7605    2.6664    0.0000 C   0  0  0  0  0  0  0  0  0  0  0  0
    2.4750    1.4289    0.0000 C   0  0  0  0  0  0  0  0  0  0  0  0
    3.1895    1.8414    0.0000 C   0  0  0  0  0  0  0  0  0  0  0  0
    3.1895    2.6664    0.0000 N   0  0  0  0  0  0  0  0  0  0  0  0
    3.9039    1.4289    0.0000 C   0  0  0  0  0  0  0  0  0  0  0  0
    3.9039    0.6039    0.0000 O   0  0  0  0  0  0  0  0  0  0  0  0
    4.6184    1.8414    0.0000 C   0  0  0  0  0  0  0  0  0  0  0  0
    5.3329    1.4289    0.0000 C   0  0  0  0  0  0  0  0  0  0  0  0
    5.3329    0.6039    0.0000 O   0  0  0  0  0  0  0  0  0  0  0  0
    3.9039    3.0789    0.0000 R#  0  0  0  0  0  0  0  0  0  0  0  0
    6.0474    1.8414    0.0000 R#  0  0  0  0  0  0  0  0  0  0  0  0
  1  2  1  0
  2  3  1  0
  2  4  1  0
  4  5  1  0
  5  6  1  0
  6 12  1  0
  5  7  1  0
  7  8  1  0
  7  9  1  0
  9 10  1  0
 10 13  1  0
 10 11  2  0
M  RGP  2  12   1  13   2
V   12 *
V   13 *
M  END
>  <m_name>  (504)
4-amino-3-hydroxy-6-methylheptanoic acid

>  <symbol>  (504)
Sta_3xi4xi

>  <m_abbr>  (504)
Sta_3xi4xi

>  <m_type>  (504)
aa

>  <m_subtype>  (504)
non-natural

>  <m_Rgroups>  (504)
H,OH,None,None

>  <m_RgroupIdx>  (504)
11,12,None,None

>  <m_attachmentPointIdx>  (504)
5,9,None,None

>  <natAnalog>  (504)
X

>  <pdbName>  (504)
ST0

$$$$

     RDKit          2D

 15 15  0  0  0  0  0  0  0  0999 V2000
    0.0000    2.4750    0.0000 C   0  0  0  0  0  0  0  0  0  0  0  0
    0.7145    2.0625    0.0000 O   0  0  0  0  0  0  0  0  0  0  0  0
    0.7145    1.2375    0.0000 C   0  0  0  0  0  0  0  0  0  0  0  0
    1.4289    0.8250    0.0000 C   0  0  0  0  0  0  0  0  0  0  0  0
    1.4289    0.0000    0.0000 C   0  0  0  0  0  0  0  0  0  0  0  0
    0.7145   -0.4125    0.0000 C   0  0  0  0  0  0  0  0  0  0  0  0
    0.7145   -1.2375    0.0000 C   0  0  0  0  0  0  0  0  0  0  0  0
    0.0000   -1.6500    0.0000 C   0  0  0  0  0  0  0  0  0  0  0  0
    0.0000   -2.4750    0.0000 N   0  0  0  0  0  0  0  0  0  0  0  0
   -0.7145   -1.2375    0.0000 C   0  0  0  0  0  0  0  0  0  0  0  0
   -0.7145   -0.4125    0.0000 O   0  0  0  0  0  0  0  0  0  0  0  0
    0.0000    0.0000    0.0000 C   0  0  0  0  0  0  0  0  0  0  0  0
    0.0000    0.8250    0.0000 C   0  0  0  0  0  0  0  0  0  0  0  0
    0.7145   -2.8875    0.0000 R#  0  0  0  0  0  0  0  0  0  0  0  0
   -1.4289   -1.6500    0.0000 R#  0  0  0  0  0  0  0  0  0  0  0  0
  1  2  1  0
  2  3  1  0
  3  4  2  0
  4  5  1  0
  5  6  2  0
  7  6  1  0
  7  8  2  3
  8  9  1  0
  9 14  1  0
  8 10  1  0
 10 15  1  0
 10 11  2  0
  6 12  1  0
 12 13  2  0
  3 13  1  0
M  RGP  2  14   1  15   2
V   14 *
V   15 *
M  END
>  <m_name>  (505)
2-amino-3-(4-methoxyphenyl)prop-2-enoic acid

>  <symbol>  (505)
Tyr_ab_dehydroMe

>  <m_abbr>  (505)
Tyr_ab_dehydroMe

>  <m_type>  (505)
aa

>  <m_subtype>  (505)
non-natural

>  <m_Rgroups>  (505)
H,OH,None,None

>  <m_RgroupIdx>  (505)
13,14,None,None

>  <m_attachmentPointIdx>  (505)
8,9,None,None

>  <natAnalog>  (505)
Y

>  <pdbName>  (505)
TY6

$$$$

     RDKit          2D

 16 16  0  0  0  0  0  0  0  0999 V2000
    2.9684   -2.2836    0.0000 O   0  0  0  0  0  0  0  0  0  0  0  0
    3.3809   -2.9980    0.0000 C   0  0  0  0  0  0  0  0  0  0  0  0
    2.9684   -3.7125    0.0000 C   0  0  0  0  0  0  0  0  0  0  0  0
    2.1434   -3.7125    0.0000 C   0  0  0  0  0  0  0  0  0  0  0  0
    1.7309   -2.9980    0.0000 O   0  0  0  0  0  0  0  0  0  0  0  0
    4.2059   -2.9980    0.0000 C   0  0  0  0  0  0  0  0  0  0  0  0
    4.6184   -2.2836    0.0000 C   0  0  0  0  0  0  0  0  0  0  0  0
    5.4434   -2.2836    0.0000 C   0  0  0  0  0  0  0  0  0  0  0  0
    5.8559   -1.5691    0.0000 C   0  0  0  0  0  0  0  0  0  0  0  0
    6.6809   -1.5691    0.0000 C   0  0  0  0  0  0  0  0  0  0  0  0
    7.0934   -2.2836    0.0000 C   0  0  0  0  0  0  0  0  0  0  0  0
    6.6809   -2.9980    0.0000 C   0  0  0  0  0  0  0  0  0  0  0  0
    5.8559   -2.9980    0.0000 C   0  0  0  0  0  0  0  0  0  0  0  0
    4.6184   -3.7125    0.0000 N   0  0  0  0  0  0  0  0  0  0  0  0
    1.7309   -4.4270    0.0000 R#  0  0  0  0  0  0  0  0  0  0  0  0
    4.2059   -4.4270    0.0000 R#  0  0  0  0  0  0  0  0  0  0  0  0
  2  1  1  1
  2  3  1  0
  3  4  1  0
  4 15  1  0
  4  5  2  0
  2  6  1  0
  6  7  1  6
  7  8  1  0
  8  9  2  0
  9 10  1  0
 10 11  2  0
 11 12  1  0
 12 13  2  0
  8 13  1  0
  6 14  1  0
 14 16  1  0
M  RGP  2  15   2  16   1
V   15 *
V   16 *
M  END
>  <m_name>  (506)
gamma-amino-beta-hydroxybenzenepentanoic acid

>  <symbol>  (506)
App

>  <m_abbr>  (506)
App

>  <m_type>  (506)
aa

>  <m_subtype>  (506)
non-natural

>  <m_Rgroups>  (506)
H,OH,None,None

>  <m_RgroupIdx>  (506)
15,14,None,None

>  <m_attachmentPointIdx>  (506)
13,3,None,None

>  <natAnalog>  (506)
X

>  <pdbName>  (506)
AHV

$$$$

     RDKit          2D

 16 16  0  0  0  0  0  0  0  0999 V2000
    2.8579    0.0000    0.0000 O   0  0  0  0  0  0  0  0  0  0  0  0
    2.8579   -0.8250    0.0000 C   0  0  0  0  0  0  0  0  0  0  0  0
    2.1434   -1.2375    0.0000 C   0  0  0  0  0  0  0  0  0  0  0  0
    1.4289   -0.8250    0.0000 C   0  0  0  0  0  0  0  0  0  0  0  0
    0.7145   -1.2375    0.0000 C   0  0  0  0  0  0  0  0  0  0  0  0
    0.0000   -0.8250    0.0000 C   0  0  0  0  0  0  0  0  0  0  0  0
   -0.7145   -1.2375    0.0000 C   0  0  0  0  0  0  0  0  0  0  0  0
   -1.4289   -0.8250    0.0000 C   0  0  0  0  0  0  0  0  0  0  0  0
   -1.4289    0.0000    0.0000 C   0  0  0  0  0  0  0  0  0  0  0  0
   -0.7145    0.4125    0.0000 C   0  0  0  0  0  0  0  0  0  0  0  0
    0.0000    0.0000    0.0000 C   0  0  0  0  0  0  0  0  0  0  0  0
    2.1434   -2.0625    0.0000 N   0  0  0  0  0  0  0  0  0  0  0  0
    3.5724   -1.2375    0.0000 C   0  0  0  0  0  0  0  0  0  0  0  0
    3.5724   -2.0625    0.0000 O   0  0  0  0  0  0  0  0  0  0  0  0
    1.4289   -2.4750    0.0000 R#  0  0  0  0  0  0  0  0  0  0  0  0
    4.2868   -0.8250    0.0000 R#  0  0  0  0  0  0  0  0  0  0  0  0
  2  1  1  1
  2  3  1  0
  3  4  1  1
  4  5  1  0
  5  6  1  0
  6  7  1  0
  7  8  1  0
  8  9  1  0
  9 10  1  0
 10 11  1  0
  6 11  1  0
  3 12  1  0
 12 15  1  0
  2 13  1  0
 13 16  1  0
 13 14  2  0
M  RGP  2  15   1  16   2
V   15 *
V   16 *
M  END
>  <m_name>  (507)
(2R,3S)-3-amino-5-cyclohexyl-2-hydroxypentanoic acid

>  <symbol>  (507)
aa

>  <m_abbr>  (507)
aa

>  <m_type>  (507)
aa

>  <m_subtype>  (507)
non-natural

>  <m_Rgroups>  (507)
H,OH,None,None

>  <m_RgroupIdx>  (507)
14,15,None,None

>  <m_attachmentPointIdx>  (507)
11,12,None,None

>  <natAnalog>  (507)
X

>  <pdbName>  (507)
CCF

$$$$

     RDKit          2D

 11 10  0  0  0  0  0  0  0  0999 V2000
    0.0000   -1.4289    0.0000 C   0  0  0  0  0  0  0  0  0  0  0  0
    0.8250   -1.4289    0.0000 C   0  0  0  0  0  0  0  0  0  0  0  0
    1.2375   -2.1434    0.0000 S   0  0  0  0  0  0  0  0  0  0  0  0
    2.0625   -2.1434    0.0000 S   0  0  0  0  0  0  0  0  0  0  0  0
    2.4750   -2.8579    0.0000 C   0  0  0  0  0  0  0  0  0  0  0  0
    3.3000   -2.8579    0.0000 C   0  0  0  0  0  0  0  0  0  0  0  0
    3.7125   -3.5724    0.0000 N   0  0  0  0  0  0  0  0  0  0  0  0
    3.7125   -2.1434    0.0000 C   0  0  0  0  0  0  0  0  0  0  0  0
    4.5375   -2.1434    0.0000 O   0  0  0  0  0  0  0  0  0  0  0  0
    4.5375   -3.5724    0.0000 R#  0  0  0  0  0  0  0  0  0  0  0  0
    3.3000   -1.4289    0.0000 R#  0  0  0  0  0  0  0  0  0  0  0  0
  1  2  1  0
  2  3  1  0
  3  4  1  0
  4  5  1  0
  6  5  1  1
  6  7  1  0
  7 10  1  0
  6  8  1  0
  8 11  1  0
  8  9  2  0
M  RGP  2  10   1  11   2
V   10 *
V   11 *
M  END
>  <m_name>  (508)
(2R)-2-amino-3-(ethyldisulfanyl)propanoic acid

>  <symbol>  (508)
Cys_SEt

>  <m_abbr>  (508)
Cys_SEt

>  <m_type>  (508)
aa

>  <m_subtype>  (508)
non-natural

>  <m_Rgroups>  (508)
H,OH,None,None

>  <m_RgroupIdx>  (508)
9,10,None,None

>  <m_attachmentPointIdx>  (508)
6,7,None,None

>  <natAnalog>  (508)
C

>  <pdbName>  (508)
CY5

$$$$

     RDKit          2D

 15 14  0  0  0  0  0  0  0  0999 V2000
    7.2849    3.3809    0.0000 N   0  0  0  0  0  0  0  0  0  0  0  0
    7.2849    2.5559    0.0000 C   0  0  0  0  0  0  0  0  0  0  0  0
    6.5704    2.1434    0.0000 C   0  0  0  0  0  0  0  0  0  0  0  0
    5.8559    2.5559    0.0000 C   0  0  0  0  0  0  0  0  0  0  0  0
    5.1414    2.1434    0.0000 C   0  0  0  0  0  0  0  0  0  0  0  0
    4.4270    2.5559    0.0000 C   0  0  0  0  0  0  0  0  0  0  0  0
    3.7125    2.1434    0.0000 C   0  0  0  0  0  0  0  0  0  0  0  0
    2.9980    2.5559    0.0000 N   0  0  0  0  0  0  0  0  0  0  0  0
    3.7125    1.3184    0.0000 C   0  0  0  0  0  0  0  0  0  0  0  0
    2.9980    0.9059    0.0000 O   0  0  0  0  0  0  0  0  0  0  0  0
    7.9993    2.1434    0.0000 C   0  0  0  0  0  0  0  0  0  0  0  0
    8.7138    2.5559    0.0000 O   0  0  0  0  0  0  0  0  0  0  0  0
    7.9993    1.3184    0.0000 O   0  0  0  0  0  0  0  0  0  0  0  0
    2.2836    2.1434    0.0000 R#  0  0  0  0  0  0  0  0  0  0  0  0
    4.4270    0.9059    0.0000 R#  0  0  0  0  0  0  0  0  0  0  0  0
  1  2  1  0
  2  3  1  0
  3  4  1  0
  4  5  1  0
  5  6  1  0
  7  6  1  1
  7  8  1  0
  8 14  1  0
  7  9  1  0
  9 15  1  0
  9 10  2  0
  2 11  1  0
 11 12  1  0
 11 13  2  0
M  RGP  2  14   1  15   2
V   14 *
V   15 *
M  END
>  <m_name>  (509)
2,7-Diaminosuberic acid

>  <symbol>  (509)
Dsu

>  <m_abbr>  (509)
Dsu

>  <m_type>  (509)
aa

>  <m_subtype>  (509)
non-natural

>  <m_Rgroups>  (509)
H,OH,None,None

>  <m_RgroupIdx>  (509)
13,14,None,None

>  <m_attachmentPointIdx>  (509)
7,8,None,None

>  <natAnalog>  (509)
X

>  <pdbName>  (509)
DZQ

$$$$

     RDKit          2D

 20 20  0  0  0  0  0  0  0  0999 V2000
    6.2684    8.8243    0.0000 N   0  0  0  0  0  0  0  0  0  0  0  0
    5.8559    8.1099    0.0000 C   0  0  0  0  0  0  0  0  0  0  0  0
    6.2684    7.3954    0.0000 C   0  0  0  0  0  0  0  0  0  0  0  0
    5.8559    6.6809    0.0000 C   0  0  0  0  0  0  0  0  0  0  0  0
    5.0309    6.6809    0.0000 N   0  0  0  0  0  0  0  0  0  0  0  0
    4.6184    5.9664    0.0000 C   0  0  0  0  0  0  0  0  0  0  0  0
    3.7934    5.9664    0.0000 C   0  0  0  0  0  0  0  0  0  0  0  0
    3.3809    6.6809    0.0000 O   0  0  0  0  0  0  0  0  0  0  0  0
    3.3809    5.2520    0.0000 N   0  0  0  0  0  0  0  0  0  0  0  0
    2.5559    5.2520    0.0000 C   0  0  0  0  0  0  0  0  0  0  0  0
    2.1434    4.5375    0.0000 C   0  0  0  0  0  0  0  0  0  0  0  0
    1.3184    4.5375    0.0000 N   0  0  0  0  0  0  0  0  0  0  0  0
    3.7934    4.5375    0.0000 C   0  0  0  0  0  0  0  0  0  0  0  0
    4.6184    4.5375    0.0000 C   0  0  0  0  0  0  0  0  0  0  0  0
    5.0309    3.8230    0.0000 O   0  0  0  0  0  0  0  0  0  0  0  0
    4.6184    7.3954    0.0000 C   0  0  0  0  0  0  0  0  0  0  0  0
    3.7934    7.3954    0.0000 O   0  0  0  0  0  0  0  0  0  0  0  0
    5.0309    8.1099    0.0000 N   0  0  0  0  0  0  0  0  0  0  0  0
    0.9059    3.8230    0.0000 R#  0  0  0  0  0  0  0  0  0  0  0  0
    5.0309    5.2520    0.0000 R#  0  0  0  0  0  0  0  0  0  0  0  0
  1  2  1  0
  2  3  1  0
  3  4  2  0
  4  5  1  0
  5  6  1  0
  6  7  1  0
  7  8  2  0
  7  9  1  0
  9 10  1  0
 10 11  1  0
 11 12  1  0
 12 19  1  0
  9 13  1  0
 13 14  1  0
 14 20  1  0
 14 15  2  0
  5 16  1  0
 16 17  2  0
 16 18  1  0
  2 18  2  0
M  RGP  2  19   1  20   2
V   19 *
V   20 *
M  END
>  <m_name>  (510)
PNA Cytosine

>  <symbol>  (510)
pnC

>  <m_abbr>  (510)
pnC

>  <m_type>  (510)
aa

>  <m_subtype>  (510)
non-natural

>  <m_Rgroups>  (510)
H,OH,None,None

>  <m_RgroupIdx>  (510)
18,19,None,None

>  <m_attachmentPointIdx>  (510)
11,13,None,None

>  <natAnalog>  (510)
X

>  <pdbName>  (510)
PN9

$$$$

     RDKit          2D

 23 24  0  0  0  0  0  0  0  0999 V2000
    1.5807    3.4692    0.0000 N   0  0  0  0  0  0  0  0  0  0  0  0
    0.9676    4.0212    0.0000 C   0  0  0  0  0  0  0  0  0  0  0  0
    0.1830    3.7663    0.0000 N   0  0  0  0  0  0  0  0  0  0  0  0
   -0.4301    4.3183    0.0000 C   0  0  0  0  0  0  0  0  0  0  0  0
   -1.2506    4.2321    0.0000 N   0  0  0  0  0  0  0  0  0  0  0  0
   -1.6631    3.5176    0.0000 C   0  0  0  0  0  0  0  0  0  0  0  0
   -2.4881    3.5176    0.0000 C   0  0  0  0  0  0  0  0  0  0  0  0
   -2.9006    4.2321    0.0000 O   0  0  0  0  0  0  0  0  0  0  0  0
   -2.9006    2.8031    0.0000 N   0  0  0  0  0  0  0  0  0  0  0  0
   -3.7256    2.8031    0.0000 C   0  0  0  0  0  0  0  0  0  0  0  0
   -4.1381    2.0886    0.0000 C   0  0  0  0  0  0  0  0  0  0  0  0
   -4.9631    2.0886    0.0000 N   0  0  0  0  0  0  0  0  0  0  0  0
   -2.4881    2.0886    0.0000 C   0  0  0  0  0  0  0  0  0  0  0  0
   -1.6631    2.0886    0.0000 C   0  0  0  0  0  0  0  0  0  0  0  0
   -1.2506    1.3742    0.0000 O   0  0  0  0  0  0  0  0  0  0  0  0
   -1.5861    4.9857    0.0000 C   0  0  0  0  0  0  0  0  0  0  0  0
   -0.9730    5.5378    0.0000 N   0  0  0  0  0  0  0  0  0  0  0  0
   -0.2586    5.1253    0.0000 C   0  0  0  0  0  0  0  0  0  0  0  0
    0.5261    5.3802    0.0000 C   0  0  0  0  0  0  0  0  0  0  0  0
    0.6976    6.1872    0.0000 O   0  0  0  0  0  0  0  0  0  0  0  0
    1.1391    4.8282    0.0000 N   0  0  0  0  0  0  0  0  0  0  0  0
   -5.3756    1.3742    0.0000 R#  0  0  0  0  0  0  0  0  0  0  0  0
   -1.2506    2.8031    0.0000 R#  0  0  0  0  0  0  0  0  0  0  0  0
  1  2  1  0
  2  3  2  0
  3  4  1  0
  4  5  1  0
  5  6  1  0
  6  7  1  0
  7  8  2  0
  7  9  1  0
  9 10  1  0
 10 11  1  0
 11 12  1  0
 12 22  1  0
  9 13  1  0
 13 14  1  0
 14 23  1  0
 14 15  2  0
  5 16  1  0
 16 17  2  0
 17 18  1  0
  4 18  2  0
 18 19  1  0
 19 20  2  0
 19 21  1  0
  2 21  1  0
M  RGP  2  22   1  23   2
V   22 *
V   23 *
M  END
>  <m_name>  (511)
PNA Guanine

>  <symbol>  (511)
pnG

>  <m_abbr>  (511)
pnG

>  <m_type>  (511)
aa

>  <m_subtype>  (511)
non-natural

>  <m_Rgroups>  (511)
H,OH,None,None

>  <m_RgroupIdx>  (511)
21,22,None,None

>  <m_attachmentPointIdx>  (511)
11,13,None,None

>  <natAnalog>  (511)
X

>  <pdbName>  (511)
PJI

$$$$

     RDKit          2D

 22 24  0  0  0  0  0  0  0  0999 V2000
   -1.4289   -2.4750    0.0000 N   0  0  0  0  0  0  0  0  0  0  0  0
   -1.4289   -1.6500    0.0000 C   0  0  0  0  0  0  0  0  0  0  0  0
   -0.7145   -1.2375    0.0000 C   0  0  0  0  0  0  0  0  0  0  0  0
    0.0000   -1.6500    0.0000 N   0  0  0  0  0  0  0  0  0  0  0  0
    0.0000   -2.4750    0.0000 C   0  0  0  0  0  0  0  0  0  0  0  0
   -0.7145   -2.8875    0.0000 C   0  0  0  0  0  0  0  0  0  0  0  0
    0.7145   -1.2375    0.0000 C   0  0  0  0  0  0  0  0  0  0  0  0
    0.7145   -0.4125    0.0000 C   0  0  0  0  0  0  0  0  0  0  0  0
    1.4289    0.0000    0.0000 C   0  0  0  0  0  0  0  0  0  0  0  0
    2.1434   -0.4125    0.0000 C   0  0  0  0  0  0  0  0  0  0  0  0
    2.8579    0.0000    0.0000 C   0  0  0  0  0  0  0  0  0  0  0  0
    3.5724   -0.4125    0.0000 C   0  0  0  0  0  0  0  0  0  0  0  0
    3.5724   -1.2375    0.0000 N   0  0  0  0  0  0  0  0  0  0  0  0
    4.2868   -1.6500    0.0000 C   0  0  0  0  0  0  0  0  0  0  0  0
    4.2868   -2.4750    0.0000 C   0  0  0  0  0  0  0  0  0  0  0  0
    3.5724   -2.8875    0.0000 O   0  0  0  0  0  0  0  0  0  0  0  0
    2.8579   -1.6500    0.0000 C   0  0  0  0  0  0  0  0  0  0  0  0
    2.8579   -2.4750    0.0000 O   0  0  0  0  0  0  0  0  0  0  0  0
    2.1434   -1.2375    0.0000 C   0  0  0  0  0  0  0  0  0  0  0  0
    1.4289   -1.6500    0.0000 C   0  0  0  0  0  0  0  0  0  0  0  0
   -2.1434   -2.8875    0.0000 R#  0  0  0  0  0  0  0  0  0  0  0  0
    5.0013   -2.8875    0.0000 R#  0  0  0  0  0  0  0  0  0  0  0  0
 21  1  1  0
  1  2  1  0
  2  3  1  0
  3  4  1  0
  4  5  1  0
  5  6  1  0
  1  6  1  0
  4  7  1  0
  7  8  2  0
  8  9  1  0
  9 10  2  0
 10 11  1  0
 11 12  2  0
 12 13  1  0
 13 14  1  0
 14 15  1  0
 15 22  1  0
 15 16  2  0
 13 17  1  0
 17 18  2  0
 17 19  1  0
 10 19  1  0
 19 20  2  0
  7 20  1  0
M  RGP  2  21   1  22   2
V   21 *
V   22 *
M  END
>  <m_name>  (512)
2-[1-oxo-7-(piperazin-1-yl)-1,2-dihydroisoquinolin-2-yl]acetic acid

>  <symbol>  (512)
Pqa

>  <m_abbr>  (512)
Pqa

>  <m_type>  (512)
aa

>  <m_subtype>  (512)
non-natural

>  <m_Rgroups>  (512)
H,OH,None,None

>  <m_RgroupIdx>  (512)
20,21,None,None

>  <m_attachmentPointIdx>  (512)
0,14,None,None

>  <natAnalog>  (512)
X

>  <pdbName>  (512)
PQF

$$$$

     RDKit          2D

 11 11  0  0  0  0  0  0  0  0999 V2000
    0.5678    1.9393    0.0000 C   0  0  0  0  0  0  0  0  0  0  0  0
    0.5678    1.1143    0.0000 C   0  0  0  0  0  0  0  0  0  0  0  0
    1.2352    0.6294    0.0000 C   0  0  0  0  0  0  0  0  0  0  0  0
    0.9803   -0.1553    0.0000 N   0  0  0  0  0  0  0  0  0  0  0  0
    0.1553   -0.1553    0.0000 C   0  0  0  0  0  0  0  0  0  0  0  0
   -0.0997    0.6294    0.0000 C   0  0  0  0  0  0  0  0  0  0  0  0
   -0.8843    0.8843    0.0000 O   0  0  0  0  0  0  0  0  0  0  0  0
   -0.3297   -0.8227    0.0000 C   0  0  0  0  0  0  0  0  0  0  0  0
   -1.1501   -0.7365    0.0000 O   0  0  0  0  0  0  0  0  0  0  0  0
    1.4652   -0.8227    0.0000 R#  0  0  0  0  0  0  0  0  0  0  0  0
    0.0059   -1.5764    0.0000 R#  0  0  0  0  0  0  0  0  0  0  0  0
  1  2  1  0
  2  3  1  0
  3  4  1  0
  4 10  1  0
  5  4  1  0
  5  6  1  0
  2  6  1  0
  6  7  1  0
  5  8  1  6
  8 11  1  0
  8  9  2  0
M  RGP  2  10   1  11   2
V   10 *
V   11 *
M  END
>  <m_name>  (513)
(2S)-3-hydroxy-4-methylpyrrolidine-2-carboxylic acid

>  <symbol>  (513)
Pro_4Me3OH

>  <m_abbr>  (513)
Pro_4Me3OH

>  <m_type>  (513)
aa

>  <m_subtype>  (513)
non-natural

>  <m_Rgroups>  (513)
H,OH,None,None

>  <m_RgroupIdx>  (513)
9,10,None,None

>  <m_attachmentPointIdx>  (513)
3,7,None,None

>  <natAnalog>  (513)
P

>  <pdbName>  (513)
PRG

$$$$

     RDKit          2D

  6  5  0  0  0  0  0  0  0  0999 V2000
    0.8250   -1.4289    0.0000 N   0  0  0  0  0  0  0  0  0  0  0  0
    1.2375   -0.7145    0.0000 C   0  0  0  0  0  0  0  0  0  0  0  0
    2.0625   -0.7145    0.0000 C   0  0  0  0  0  0  0  0  0  0  0  0
    2.4750   -1.4289    0.0000 O   0  0  0  0  0  0  0  0  0  0  0  0
    0.8250    0.0000    0.0000 C   0  0  0  0  0  0  0  0  0  0  0  0
    0.0000    0.0000    0.0000 R#  0  0  0  0  0  0  0  0  0  0  0  0
  2  1  1  6
  2  3  1  0
  3  4  1  0
  2  5  1  0
  5  6  1  0
M  RGP  1   6   2
V    6 *
M  END
>  <m_name>  (514)
(2R)-2-aminopropan-1-ol

>  <symbol>  (514)
D_Ala_ol

>  <m_abbr>  (514)
D_Ala_ol

>  <m_type>  (514)
aa

>  <m_subtype>  (514)
non-natural

>  <m_Rgroups>  (514)
None,OH,None,None

>  <m_RgroupIdx>  (514)
None,5,None,None

>  <m_attachmentPointIdx>  (514)
None,4,None,None

>  <natAnalog>  (514)
A

>  <pdbName>  (514)
D0D

$$$$

     RDKit          2D

 11 11  0  0  0  0  0  0  0  0999 V2000
   -0.3583    1.0310    0.0000 N   0  0  0  0  0  0  0  0  0  0  0  0
   -0.3577    0.2060    0.0000 C   0  0  0  0  0  0  0  0  0  0  0  0
   -1.0718   -0.2071    0.0000 C   0  0  0  0  0  0  0  0  0  0  0  0
   -1.7866    0.2048    0.0000 O   0  0  0  0  0  0  0  0  0  0  0  0
    0.3570   -0.2060    0.0000 C   0  0  0  0  0  0  0  0  0  0  0  0
    0.3577   -1.0310    0.0000 C   0  0  0  0  0  0  0  0  0  0  0  0
    1.0724   -1.4428    0.0000 C   0  0  0  0  0  0  0  0  0  0  0  0
    1.7866   -1.0298    0.0000 C   0  0  0  0  0  0  0  0  0  0  0  0
    1.7859   -0.2048    0.0000 C   0  0  0  0  0  0  0  0  0  0  0  0
    1.0711    0.2071    0.0000 C   0  0  0  0  0  0  0  0  0  0  0  0
   -1.0731    1.4428    0.0000 R#  0  0  0  0  0  0  0  0  0  0  0  0
  1  2  1  0
  2  3  1  0
  3  4  1  0
  2  5  1  0
  5  6  2  0
  6  7  1  0
  7  8  2  0
  8  9  1  0
  9 10  2  0
 10  5  1  0
 11  1  1  0
M  RGP  1  11   1
V   11 *
M  END
>  <m_name>  (515)
2-amino-2-methylpropan-1-ol

>  <symbol>  (515)
D_Phg_ol

>  <m_abbr>  (515)
D_Phg_ol

>  <m_type>  (515)
aa

>  <m_subtype>  (515)
non-natural

>  <m_Rgroups>  (515)
H,None,None,None

>  <m_RgroupIdx>  (515)
10,None,None,None

>  <m_attachmentPointIdx>  (515)
0,None,None,None

>  <natAnalog>  (515)
G

>  <pdbName>  (515)
D0I

$$$$

     RDKit          2D

  8  7  0  0  0  0  0  0  0  0999 V2000
    2.4750    0.0000    0.0000 C   0  0  0  0  0  0  0  0  0  0  0  0
    2.0625    0.7145    0.0000 C   0  0  0  0  0  0  0  0  0  0  0  0
    2.4750    1.4289    0.0000 O   0  0  0  0  0  0  0  0  0  0  0  0
    1.2375    0.7145    0.0000 C   0  0  0  0  0  0  0  0  0  0  0  0
    0.8250    1.4289    0.0000 C   0  0  0  0  0  0  0  0  0  0  0  0
    0.0000    1.4289    0.0000 O   0  0  0  0  0  0  0  0  0  0  0  0
    0.8250    0.0000    0.0000 N   0  0  0  0  0  0  0  0  0  0  0  0
    0.0000    0.0000    0.0000 R#  0  0  0  0  0  0  0  0  0  0  0  0
  2  1  1  6
  2  3  1  0
  2  4  1  0
  4  5  1  6
  5  6  1  0
  4  7  1  0
  7  8  1  0
M  RGP  1   8   1
V    8 *
M  END
>  <m_name>  (516)
(2R,3R)-2-aminobutane-1,3-diol

>  <symbol>  (516)
D_Thr_ol

>  <m_abbr>  (516)
D_Thr_ol

>  <m_type>  (516)
aa

>  <m_subtype>  (516)
non-natural

>  <m_Rgroups>  (516)
H,None,None,None

>  <m_RgroupIdx>  (516)
7,None,None,None

>  <m_attachmentPointIdx>  (516)
6,None,None,None

>  <natAnalog>  (516)
T

>  <pdbName>  (516)
D06

$$$$

     RDKit          2D

  4  3  0  0  0  0  0  0  0  0999 V2000
    2.0625   -0.7145    0.0000 O   0  0  0  0  0  0  0  0  0  0  0  0
    1.2375   -0.7145    0.0000 C   0  0  0  0  0  0  0  0  0  0  0  0
    0.8250    0.0000    0.0000 N   0  0  0  0  0  0  0  0  0  0  0  0
    0.0000    0.0000    0.0000 R#  0  0  0  0  0  0  0  0  0  0  0  0
  1  2  1  0
  2  3  1  0
  3  4  1  0
M  RGP  1   4   1
V    4 *
M  END
>  <m_name>  (517)
aminomethanol

>  <symbol>  (517)
Gly_ol

>  <m_abbr>  (517)
Gly_ol

>  <m_type>  (517)
aa

>  <m_subtype>  (517)
non-natural

>  <m_Rgroups>  (517)
H,None,None,None

>  <m_RgroupIdx>  (517)
3,None,None,None

>  <m_attachmentPointIdx>  (517)
2,None,None,None

>  <natAnalog>  (517)
G

>  <pdbName>  (517)
GA1

$$$$

     RDKit          2D

  6  5  0  0  0  0  0  0  0  0999 V2000
    0.8250   -1.4289    0.0000 C   0  0  0  0  0  0  0  0  0  0  0  0
    1.2375   -0.7145    0.0000 C   0  0  0  0  0  0  0  0  0  0  0  0
    2.0625   -0.7145    0.0000 C   0  0  0  0  0  0  0  0  0  0  0  0
    2.4750   -1.4289    0.0000 O   0  0  0  0  0  0  0  0  0  0  0  0
    0.8250    0.0000    0.0000 N   0  0  0  0  0  0  0  0  0  0  0  0
    0.0000    0.0000    0.0000 R#  0  0  0  0  0  0  0  0  0  0  0  0
  2  1  1  6
  2  3  1  0
  3  4  1  0
  2  5  1  0
  5  6  1  0
M  RGP  1   6   1
V    6 *
M  END
>  <m_name>  (518)
(2S)-2-aminopropan-1-ol

>  <symbol>  (518)
Ala_ol

>  <m_abbr>  (518)
Ala_ol

>  <m_type>  (518)
aa

>  <m_subtype>  (518)
non-natural

>  <m_Rgroups>  (518)
H,None,None,None

>  <m_RgroupIdx>  (518)
5,None,None,None

>  <m_attachmentPointIdx>  (518)
4,None,None,None

>  <natAnalog>  (518)
A

>  <pdbName>  (518)
AH5

$$$$

     RDKit          2D

 10  9  0  0  0  0  0  0  0  0999 V2000
    0.0000   -1.4289    0.0000 N   0  0  0  0  0  0  0  0  0  0  0  0
    0.8250   -1.4289    0.0000 C   0  0  0  0  0  0  0  0  0  0  0  0
    1.2375   -2.1434    0.0000 C   0  0  0  0  0  0  0  0  0  0  0  0
    2.0625   -2.1434    0.0000 C   0  0  0  0  0  0  0  0  0  0  0  0
    2.4750   -2.8579    0.0000 C   0  0  0  0  0  0  0  0  0  0  0  0
    3.3000   -2.8579    0.0000 C   0  0  0  0  0  0  0  0  0  0  0  0
    3.7125   -3.5724    0.0000 C   0  0  0  0  0  0  0  0  0  0  0  0
    4.5375   -3.5724    0.0000 O   0  0  0  0  0  0  0  0  0  0  0  0
    3.7125   -2.1434    0.0000 N   0  0  0  0  0  0  0  0  0  0  0  0
    4.5375   -2.1434    0.0000 R#  0  0  0  0  0  0  0  0  0  0  0  0
  1  2  1  0
  2  3  1  0
  3  4  1  0
  4  5  1  0
  6  5  1  6
  6  7  1  0
  7  8  1  0
  6  9  1  0
  9 10  1  0
M  RGP  1  10   1
V   10 *
M  END
>  <m_name>  (519)
(2S)-2,6-diaminohexan-1-ol

>  <symbol>  (519)
Lys_ol

>  <m_abbr>  (519)
Lys_ol

>  <m_type>  (519)
aa

>  <m_subtype>  (519)
non-natural

>  <m_Rgroups>  (519)
H,None,None,None

>  <m_RgroupIdx>  (519)
9,None,None,None

>  <m_attachmentPointIdx>  (519)
8,None,None,None

>  <natAnalog>  (519)
K

>  <pdbName>  (519)
LAW

$$$$

     RDKit          2D

 11 11  0  0  0  0  0  0  0  0999 V2000
    0.0000    3.3000    0.0000 O   0  0  0  0  0  0  0  0  0  0  0  0
    0.0000    2.4750    0.0000 C   0  0  0  0  0  0  0  0  0  0  0  0
    0.7145    2.0625    0.0000 C   0  0  0  0  0  0  0  0  0  0  0  0
    1.4289    2.4750    0.0000 N   0  0  0  0  0  0  0  0  0  0  0  0
    0.7145    1.2375    0.0000 C   0  0  0  0  0  0  0  0  0  0  0  0
    1.4289    0.8250    0.0000 C   0  0  0  0  0  0  0  0  0  0  0  0
    1.4289    0.0000    0.0000 C   0  0  0  0  0  0  0  0  0  0  0  0
    0.7145   -0.4125    0.0000 C   0  0  0  0  0  0  0  0  0  0  0  0
    0.0000    0.0000    0.0000 C   0  0  0  0  0  0  0  0  0  0  0  0
    0.0000    0.8250    0.0000 C   0  0  0  0  0  0  0  0  0  0  0  0
    2.1434    2.0625    0.0000 R#  0  0  0  0  0  0  0  0  0  0  0  0
  1  2  1  0
  3  2  1  1
  3  4  1  0
  4 11  1  0
  3  5  1  0
  5  6  2  0
  6  7  1  0
  7  8  2  0
  8  9  1  0
  9 10  2  0
  5 10  1  0
M  RGP  1  11   1
V   11 *
M  END
>  <m_name>  (520)
(2S)-2-amino-2-phenylethan-1-ol

>  <symbol>  (520)
Phg_ol

>  <m_abbr>  (520)
Phg_ol

>  <m_type>  (520)
aa

>  <m_subtype>  (520)
non-natural

>  <m_Rgroups>  (520)
H,None,None,None

>  <m_RgroupIdx>  (520)
10,None,None,None

>  <m_attachmentPointIdx>  (520)
3,None,None,None

>  <natAnalog>  (520)
G

>  <pdbName>  (520)
PJN

$$$$

     RDKit          2D

  8  8  0  0  0  0  0  0  0  0999 V2000
   -0.1467    2.3518    0.0000 O   0  0  0  0  0  0  0  0  0  0  0  0
    0.5678    1.9393    0.0000 C   0  0  0  0  0  0  0  0  0  0  0  0
    0.5678    1.1143    0.0000 C   0  0  0  0  0  0  0  0  0  0  0  0
    1.2352    0.6294    0.0000 C   0  0  0  0  0  0  0  0  0  0  0  0
    0.9803   -0.1553    0.0000 C   0  0  0  0  0  0  0  0  0  0  0  0
    0.1553   -0.1553    0.0000 C   0  0  0  0  0  0  0  0  0  0  0  0
   -0.0997    0.6294    0.0000 N   0  0  0  0  0  0  0  0  0  0  0  0
   -0.8843    0.8843    0.0000 R#  0  0  0  0  0  0  0  0  0  0  0  0
  1  2  1  0
  3  2  1  6
  3  4  1  0
  4  5  1  0
  5  6  1  0
  6  7  1  0
  3  7  1  0
  7  8  1  0
M  RGP  1   8   1
V    8 *
M  END
>  <m_name>  (521)
[(2S)-pyrrolidin-2-yl]methanol

>  <symbol>  (521)
Pro_ol

>  <m_abbr>  (521)
Pro_ol

>  <m_type>  (521)
aa

>  <m_subtype>  (521)
non-natural

>  <m_Rgroups>  (521)
H,None,None,None

>  <m_RgroupIdx>  (521)
7,None,None,None

>  <m_attachmentPointIdx>  (521)
6,None,None,None

>  <natAnalog>  (521)
P

>  <pdbName>  (521)
PJO

$$$$

     RDKit          2D

  8  7  0  0  0  0  0  0  0  0999 V2000
    2.4750    0.0000    0.0000 C   0  0  0  0  0  0  0  0  0  0  0  0
    2.0625    0.7145    0.0000 C   0  0  0  0  0  0  0  0  0  0  0  0
    2.4750    1.4289    0.0000 C   0  0  0  0  0  0  0  0  0  0  0  0
    1.2375    0.7145    0.0000 C   0  0  0  0  0  0  0  0  0  0  0  0
    0.8250    1.4289    0.0000 C   0  0  0  0  0  0  0  0  0  0  0  0
    0.0000    1.4289    0.0000 O   0  0  0  0  0  0  0  0  0  0  0  0
    0.8250    0.0000    0.0000 N   0  0  0  0  0  0  0  0  0  0  0  0
    0.0000    0.0000    0.0000 R#  0  0  0  0  0  0  0  0  0  0  0  0
  1  2  1  0
  2  3  1  0
  4  2  1  0
  4  5  1  6
  5  6  1  0
  4  7  1  0
  7  8  1  0
M  RGP  1   8   1
V    8 *
M  END
>  <m_name>  (522)
(2S)-2-amino-3-methylbutan-1-ol

>  <symbol>  (522)
Val_ol

>  <m_abbr>  (522)
Val_ol

>  <m_type>  (522)
aa

>  <m_subtype>  (522)
non-natural

>  <m_Rgroups>  (522)
H,None,None,None

>  <m_RgroupIdx>  (522)
7,None,None,None

>  <m_attachmentPointIdx>  (522)
6,None,None,None

>  <natAnalog>  (522)
V

>  <pdbName>  (522)
VAG

$$$$

     RDKit          2D

  6  5  0  0  0  0  0  0  0  0999 V2000
    0.8250   -1.4289    0.0000 C   0  0  0  0  0  0  0  0  0  0  0  0
    1.2375   -0.7145    0.0000 C   0  0  0  0  0  0  0  0  0  0  0  0
    2.0625   -0.7145    0.0000 N   0  0  0  0  0  0  0  0  0  0  0  0
    0.8250    0.0000    0.0000 C   0  0  0  0  0  0  0  0  0  0  0  0
    0.0000    0.0000    0.0000 O   0  0  0  0  0  0  0  0  0  0  0  0
    2.4750   -1.4289    0.0000 R#  0  0  0  0  0  0  0  0  0  0  0  0
  2  1  1  1
  2  3  1  0
  3  6  1  0
  2  4  1  0
  4  5  2  0
M  RGP  1   6   1
V    6 *
M  END
>  <m_name>  (523)
(2S)-2-aminopropanal

>  <symbol>  (523)
Ala_al

>  <m_abbr>  (523)
Ala_al

>  <m_type>  (523)
aa

>  <m_subtype>  (523)
non-natural

>  <m_Rgroups>  (523)
H,None,None,None

>  <m_RgroupIdx>  (523)
5,None,None,None

>  <m_attachmentPointIdx>  (523)
2,None,None,None

>  <natAnalog>  (523)
A

>  <pdbName>  (523)
AIE

$$$$

     RDKit          2D

 12 11  0  0  0  0  0  0  0  0999 V2000
    0.6974   -2.9487    0.0000 N   0  0  0  0  0  0  0  0  0  0  0  0
    1.2375   -3.5724    0.0000 C   0  0  0  0  0  0  0  0  0  0  0  0
    0.9675   -4.3519    0.0000 N   0  0  0  0  0  0  0  0  0  0  0  0
    2.0476   -3.4164    0.0000 N   0  0  0  0  0  0  0  0  0  0  0  0
    2.5877   -4.0401    0.0000 C   0  0  0  0  0  0  0  0  0  0  0  0
    3.3979   -3.8842    0.0000 C   0  0  0  0  0  0  0  0  0  0  0  0
    3.9379   -4.5078    0.0000 C   0  0  0  0  0  0  0  0  0  0  0  0
    4.7481   -4.3519    0.0000 C   0  0  0  0  0  0  0  0  0  0  0  0
    5.2882   -4.9755    0.0000 N   0  0  0  0  0  0  0  0  0  0  0  0
    5.0181   -3.5724    0.0000 C   0  0  0  0  0  0  0  0  0  0  0  0
    5.8283   -3.4164    0.0000 O   0  0  0  0  0  0  0  0  0  0  0  0
    6.0983   -4.8196    0.0000 R#  0  0  0  0  0  0  0  0  0  0  0  0
  1  2  1  0
  2  3  2  0
  2  4  1  0
  4  5  1  0
  5  6  1  0
  6  7  1  0
  8  7  1  1
  8  9  1  0
  9 12  1  0
  8 10  1  0
 10 11  2  0
M  RGP  1  12   1
V   12 *
M  END
>  <m_name>  (524)
N''-[(4S)-4-amino-5-oxopentyl]guanidine

>  <symbol>  (524)
Arg_al

>  <m_abbr>  (524)
Arg_al

>  <m_type>  (524)
aa

>  <m_subtype>  (524)
non-natural

>  <m_Rgroups>  (524)
H,None,None,None

>  <m_RgroupIdx>  (524)
11,None,None,None

>  <m_attachmentPointIdx>  (524)
8,None,None,None

>  <natAnalog>  (524)
R

>  <pdbName>  (524)
ARY

$$$$

     RDKit          2D

  9  8  0  0  0  0  0  0  0  0999 V2000
    0.5230    0.5230    0.0000 O   0  0  0  0  0  0  0  0  0  0  0  0
    1.2375    0.1105    0.0000 C   0  0  0  0  0  0  0  0  0  0  0  0
    1.9520    0.5230    0.0000 O   0  0  0  0  0  0  0  0  0  0  0  0
    1.2375   -0.7145    0.0000 C   0  0  0  0  0  0  0  0  0  0  0  0
    1.9520   -1.1270    0.0000 C   0  0  0  0  0  0  0  0  0  0  0  0
    1.9520   -1.9520    0.0000 N   0  0  0  0  0  0  0  0  0  0  0  0
    2.6664   -0.7145    0.0000 C   0  0  0  0  0  0  0  0  0  0  0  0
    3.3809   -1.1270    0.0000 O   0  0  0  0  0  0  0  0  0  0  0  0
    2.6664   -2.3645    0.0000 R#  0  0  0  0  0  0  0  0  0  0  0  0
  1  2  1  0
  2  3  2  0
  2  4  1  0
  5  4  1  1
  5  6  1  0
  6  9  1  0
  5  7  1  0
  7  8  2  0
M  RGP  1   9   1
V    9 *
M  END
>  <m_name>  (525)
(3S)-3-amino-4-oxobutanoic acid

>  <symbol>  (525)
Asp_al

>  <m_abbr>  (525)
Asp_al

>  <m_type>  (525)
aa

>  <m_subtype>  (525)
non-natural

>  <m_Rgroups>  (525)
H,None,None,None

>  <m_RgroupIdx>  (525)
8,None,None,None

>  <m_attachmentPointIdx>  (525)
5,None,None,None

>  <natAnalog>  (525)
N

>  <pdbName>  (525)
AII

$$$$

     RDKit          2D

 10  9  0  0  0  0  0  0  0  0999 V2000
    0.0000   -1.4289    0.0000 N   0  0  0  0  0  0  0  0  0  0  0  0
    0.8250   -1.4289    0.0000 C   0  0  0  0  0  0  0  0  0  0  0  0
    1.2375   -2.1434    0.0000 C   0  0  0  0  0  0  0  0  0  0  0  0
    2.0625   -2.1434    0.0000 C   0  0  0  0  0  0  0  0  0  0  0  0
    2.4750   -2.8579    0.0000 C   0  0  0  0  0  0  0  0  0  0  0  0
    3.3000   -2.8579    0.0000 C   0  0  0  0  0  0  0  0  0  0  0  0
    3.7125   -3.5724    0.0000 N   0  0  0  0  0  0  0  0  0  0  0  0
    3.7125   -2.1434    0.0000 C   0  0  0  0  0  0  0  0  0  0  0  0
    4.5375   -2.1434    0.0000 O   0  0  0  0  0  0  0  0  0  0  0  0
    4.5375   -3.5724    0.0000 R#  0  0  0  0  0  0  0  0  0  0  0  0
  1  2  1  0
  2  3  1  0
  3  4  1  0
  4  5  1  0
  6  5  1  1
  6  7  1  0
  7 10  1  0
  6  8  1  0
  8  9  2  0
M  RGP  1  10   1
V   10 *
M  END
>  <m_name>  (526)
(2S)-2,6-diaminohexanal

>  <symbol>  (526)
Lys_al

>  <m_abbr>  (526)
Lys_al

>  <m_type>  (526)
aa

>  <m_subtype>  (526)
non-natural

>  <m_Rgroups>  (526)
H,None,None,None

>  <m_RgroupIdx>  (526)
9,None,None,None

>  <m_attachmentPointIdx>  (526)
6,None,None,None

>  <natAnalog>  (526)
K

>  <pdbName>  (526)
LA0

$$$$

     RDKit          2D

  8  8  0  0  0  0  0  0  0  0999 V2000
    0.5678    1.1143    0.0000 N   0  0  0  0  0  0  0  0  0  0  0  0
    1.2352    0.6294    0.0000 C   0  0  0  0  0  0  0  0  0  0  0  0
    0.9803   -0.1553    0.0000 C   0  0  0  0  0  0  0  0  0  0  0  0
    0.1553   -0.1553    0.0000 C   0  0  0  0  0  0  0  0  0  0  0  0
   -0.0997    0.6294    0.0000 C   0  0  0  0  0  0  0  0  0  0  0  0
   -0.8843    0.8843    0.0000 C   0  0  0  0  0  0  0  0  0  0  0  0
   -1.4974    0.3323    0.0000 O   0  0  0  0  0  0  0  0  0  0  0  0
    0.5678    1.9393    0.0000 R#  0  0  0  0  0  0  0  0  0  0  0  0
  8  1  1  0
  1  2  1  0
  2  3  1  0
  3  4  1  0
  5  4  1  0
  5  1  1  0
  5  6  1  1
  6  7  2  0
M  RGP  1   8   1
V    8 *
M  END
>  <m_name>  (527)
(2S)-pyrrolidine-2-carbaldehyde

>  <symbol>  (527)
Pro_al

>  <m_abbr>  (527)
Pro_al

>  <m_type>  (527)
aa

>  <m_subtype>  (527)
non-natural

>  <m_Rgroups>  (527)
H,None,None,None

>  <m_RgroupIdx>  (527)
7,None,None,None

>  <m_attachmentPointIdx>  (527)
0,None,None,None

>  <natAnalog>  (527)
P

>  <pdbName>  (527)
PJR

$$$$

     RDKit          2D

  9  9  0  0  0  0  0  0  0  0999 V2000
    0.0000    2.4750    0.0000 N   0  0  0  0  0  0  0  0  0  0  0  0
    0.7145    2.0625    0.0000 C   0  0  0  0  0  0  0  0  0  0  0  0
    0.7145    1.2375    0.0000 C   0  0  0  0  0  0  0  0  0  0  0  0
    1.4289    0.8250    0.0000 C   0  0  0  0  0  0  0  0  0  0  0  0
    1.4289    0.0000    0.0000 C   0  0  0  0  0  0  0  0  0  0  0  0
    0.7145   -0.4125    0.0000 C   0  0  0  0  0  0  0  0  0  0  0  0
    0.0000    0.0000    0.0000 C   0  0  0  0  0  0  0  0  0  0  0  0
    0.0000    0.8250    0.0000 C   0  0  0  0  0  0  0  0  0  0  0  0
    0.0000    3.3000    0.0000 R#  0  0  0  0  0  0  0  0  0  0  0  0
  9  1  1  0
  1  2  1  0
  2  3  1  0
  3  4  2  0
  4  5  1  0
  5  6  2  0
  6  7  1  0
  7  8  2  0
  3  8  1  0
M  RGP  1   9   1
V    9 *
M  END
>  <m_name>  (528)
C-Terminal 1-phenylmethanamine

>  <symbol>  (528)
_NHBn

>  <m_abbr>  (528)
_NHBn

>  <m_type>  (528)
aa

>  <m_subtype>  (528)
aa

>  <m_Rgroups>  (528)
H,None,None,None

>  <m_RgroupIdx>  (528)
8,None,None,None

>  <m_attachmentPointIdx>  (528)
0,None,None,None

>  <natAnalog>  (528)
X

>  <pdbName>  (528)
NH0

$$$$

     RDKit          2D

  3  2  0  0  0  0  0  0  0  0999 V2000
    1.2375   -0.7145    0.0000 C   0  0  0  0  0  0  0  0  0  0  0  0
    1.9520   -1.1270    0.0000 N   0  0  0  0  0  0  0  0  0  0  0  0
    2.6664   -0.7145    0.0000 R#  0  0  0  0  0  0  0  0  0  0  0  0
  1  2  1  0
  2  3  1  0
M  RGP  1   3   1
V    3 *
M  END
>  <m_name>  (529)
Methanamine

>  <symbol>  (529)
NHMe

>  <m_abbr>  (529)
NHMe

>  <m_type>  (529)
aa

>  <m_subtype>  (529)
aa

>  <m_Rgroups>  (529)
H,None,None,None

>  <m_RgroupIdx>  (529)
2,None,None,None

>  <m_attachmentPointIdx>  (529)
1,None,None,None

>  <natAnalog>  (529)
X

>  <pdbName>  (529)
NB0

$$$$

     RDKit          2D

 12 11  0  0  0  0  0  0  0  0999 V2000
   -0.8250   -2.8579    0.0000 C   0  0  0  0  0  0  0  0  0  0  0  0
   -0.4125   -2.1434    0.0000 S   0  0  0  0  0  0  0  0  0  0  0  0
    0.3020   -2.5559    0.0000 O   0  0  0  0  0  0  0  0  0  0  0  0
   -1.1270   -1.7309    0.0000 O   0  0  0  0  0  0  0  0  0  0  0  0
    0.0000   -1.4289    0.0000 C   0  0  0  0  0  0  0  0  0  0  0  0
    0.8250   -1.4289    0.0000 C   0  0  0  0  0  0  0  0  0  0  0  0
    1.2375   -0.7145    0.0000 C   0  0  0  0  0  0  0  0  0  0  0  0
    2.0625   -0.7145    0.0000 N   0  0  0  0  0  0  0  0  0  0  0  0
    0.8250    0.0000    0.0000 C   0  0  0  0  0  0  0  0  0  0  0  0
    0.0000    0.0000    0.0000 O   0  0  0  0  0  0  0  0  0  0  0  0
    2.4750    0.0000    0.0000 R#  0  0  0  0  0  0  0  0  0  0  0  0
    1.2375    0.7145    0.0000 R#  0  0  0  0  0  0  0  0  0  0  0  0
  1  2  1  0
  2  3  2  0
  2  4  2  0
  2  5  1  0
  5  6  1  0
  7  6  1  1
  7  8  1  0
  8 11  1  0
  7  9  1  0
  9 12  1  0
  9 10  2  0
M  RGP  2  11   1  12   2
V   11 *
V   12 *
M  END
>  <m_name>  (530)
(2S)-2-amino-4-methanesulfonylbutanoic acid

>  <symbol>  (530)
Met_O2

>  <m_abbr>  (530)
Met_O2

>  <m_type>  (530)
aa

>  <m_subtype>  (530)
non-natural

>  <m_Rgroups>  (530)
H,OH,None,None

>  <m_RgroupIdx>  (530)
10,11,None,None

>  <m_attachmentPointIdx>  (530)
7,8,None,None

>  <natAnalog>  (530)
M

>  <pdbName>  (530)
MHJ

$$$$

     RDKit          2D

 14 14  0  0  0  0  0  0  0  0999 V2000
    0.7145    2.0625    0.0000 C   0  0  0  0  0  0  0  0  0  0  0  0
    0.7145    1.2375    0.0000 C   0  0  0  0  0  0  0  0  0  0  0  0
    1.4289    0.8250    0.0000 C   0  0  0  0  0  0  0  0  0  0  0  0
    1.4289    0.0000    0.0000 C   0  0  0  0  0  0  0  0  0  0  0  0
    0.7145   -0.4125    0.0000 C   0  0  0  0  0  0  0  0  0  0  0  0
    0.0000    0.0000    0.0000 C   0  0  0  0  0  0  0  0  0  0  0  0
    0.0000    0.8250    0.0000 C   0  0  0  0  0  0  0  0  0  0  0  0
   -0.7145    1.2375    0.0000 C   0  0  0  0  0  0  0  0  0  0  0  0
   -1.4289    0.8250    0.0000 C   0  0  0  0  0  0  0  0  0  0  0  0
   -2.1434    1.2375    0.0000 N   0  0  0  0  0  0  0  0  0  0  0  0
   -1.4289    0.0000    0.0000 C   0  0  0  0  0  0  0  0  0  0  0  0
   -0.7145   -0.4125    0.0000 O   0  0  0  0  0  0  0  0  0  0  0  0
   -2.8579    0.8250    0.0000 R#  0  0  0  0  0  0  0  0  0  0  0  0
   -2.1434   -0.4125    0.0000 R#  0  0  0  0  0  0  0  0  0  0  0  0
  1  2  1  0
  2  3  2  0
  3  4  1  0
  4  5  2  0
  5  6  1  0
  6  7  2  0
  2  7  1  0
  7  8  1  0
  9  8  1  1
  9 10  1  0
 10 13  1  0
  9 11  1  0
 11 14  1  0
 11 12  2  0
M  RGP  2  13   1  14   2
V   13 *
V   14 *
M  END
>  <m_name>  (531)
(2S)-2-amino-3-(2-methylphenyl)propanoic acid

>  <symbol>  (531)
Phe_2Me

>  <m_abbr>  (531)
Phe_2Me

>  <m_type>  (531)
aa

>  <m_subtype>  (531)
non-natural

>  <m_Rgroups>  (531)
H,OH,None,None

>  <m_RgroupIdx>  (531)
12,13,None,None

>  <m_attachmentPointIdx>  (531)
9,10,None,None

>  <natAnalog>  (531)
F

>  <pdbName>  (531)
PJU

$$$$

     RDKit          2D

 15 15  0  0  0  0  0  0  0  0999 V2000
    0.7145    2.0625    0.0000 Cl  0  0  0  0  0  0  0  0  0  0  0  0
    0.7145    1.2375    0.0000 C   0  0  0  0  0  0  0  0  0  0  0  0
    1.4289    0.8250    0.0000 C   0  0  0  0  0  0  0  0  0  0  0  0
    1.4289    0.0000    0.0000 C   0  0  0  0  0  0  0  0  0  0  0  0
    0.7145   -0.4125    0.0000 C   0  0  0  0  0  0  0  0  0  0  0  0
    0.7145   -1.2375    0.0000 C   0  0  0  0  0  0  0  0  0  0  0  0
    1.4289   -1.6500    0.0000 C   0  0  0  0  0  0  0  0  0  0  0  0
    1.4289   -2.4750    0.0000 N   0  0  0  0  0  0  0  0  0  0  0  0
    2.1434   -1.2375    0.0000 C   0  0  0  0  0  0  0  0  0  0  0  0
    2.1434   -0.4125    0.0000 O   0  0  0  0  0  0  0  0  0  0  0  0
    0.0000    0.0000    0.0000 C   0  0  0  0  0  0  0  0  0  0  0  0
    0.0000    0.8250    0.0000 C   0  0  0  0  0  0  0  0  0  0  0  0
   -0.7145    1.2375    0.0000 Cl  0  0  0  0  0  0  0  0  0  0  0  0
    2.1434   -2.8875    0.0000 R#  0  0  0  0  0  0  0  0  0  0  0  0
    2.8579   -1.6500    0.0000 R#  0  0  0  0  0  0  0  0  0  0  0  0
  1  2  1  0
  2  3  2  0
  3  4  1  0
  4  5  2  0
  5  6  1  0
  7  6  1  1
  7  8  1  0
  8 14  1  0
  7  9  1  0
  9 15  1  0
  9 10  2  0
  5 11  1  0
 11 12  2  0
  2 12  1  0
 12 13  1  0
M  RGP  2  14   1  15   2
V   14 *
V   15 *
M  END
>  <m_name>  (532)
(2S)-2-amino-3-(3,4-dichlorophenyl)propanoic acid

>  <symbol>  (532)
Phe_34diCl

>  <m_abbr>  (532)
Phe_34diCl

>  <m_type>  (532)
aa

>  <m_subtype>  (532)
non-natural

>  <m_Rgroups>  (532)
H,OH,None,None

>  <m_RgroupIdx>  (532)
13,14,None,None

>  <m_attachmentPointIdx>  (532)
7,8,None,None

>  <natAnalog>  (532)
F

>  <pdbName>  (532)
PJX

$$$$

     RDKit          2D

 14 14  0  0  0  0  0  0  0  0999 V2000
    0.7145    2.0625    0.0000 Br  0  0  0  0  0  0  0  0  0  0  0  0
    0.7145    1.2375    0.0000 C   0  0  0  0  0  0  0  0  0  0  0  0
    1.4289    0.8250    0.0000 C   0  0  0  0  0  0  0  0  0  0  0  0
    1.4289    0.0000    0.0000 C   0  0  0  0  0  0  0  0  0  0  0  0
    0.7145   -0.4125    0.0000 C   0  0  0  0  0  0  0  0  0  0  0  0
    0.7145   -1.2375    0.0000 C   0  0  0  0  0  0  0  0  0  0  0  0
    1.4289   -1.6500    0.0000 C   0  0  0  0  0  0  0  0  0  0  0  0
    1.4289   -2.4750    0.0000 N   0  0  0  0  0  0  0  0  0  0  0  0
    2.1434   -1.2375    0.0000 C   0  0  0  0  0  0  0  0  0  0  0  0
    2.1434   -0.4125    0.0000 O   0  0  0  0  0  0  0  0  0  0  0  0
    0.0000    0.0000    0.0000 C   0  0  0  0  0  0  0  0  0  0  0  0
    0.0000    0.8250    0.0000 C   0  0  0  0  0  0  0  0  0  0  0  0
    2.1434   -2.8875    0.0000 R#  0  0  0  0  0  0  0  0  0  0  0  0
    2.8579   -1.6500    0.0000 R#  0  0  0  0  0  0  0  0  0  0  0  0
  1  2  1  0
  2  3  2  0
  3  4  1  0
  4  5  2  0
  5  6  1  0
  7  6  1  1
  7  8  1  0
  8 13  1  0
  7  9  1  0
  9 14  1  0
  9 10  2  0
  5 11  1  0
 11 12  2  0
  2 12  1  0
M  RGP  2  13   1  14   2
V   13 *
V   14 *
M  END
>  <m_name>  (533)
(2S)-2-amino-3-(4-bromophenyl)propanoic acid

>  <symbol>  (533)
Phe_4Br

>  <m_abbr>  (533)
Phe_4Br

>  <m_type>  (533)
aa

>  <m_subtype>  (533)
non-natural

>  <m_Rgroups>  (533)
H,OH,None,None

>  <m_RgroupIdx>  (533)
12,13,None,None

>  <m_attachmentPointIdx>  (533)
7,8,None,None

>  <natAnalog>  (533)
F

>  <pdbName>  (533)
PJ0

$$$$

     RDKit          2D

 14 14  0  0  0  0  0  0  0  0999 V2000
    0.7145    2.0625    0.0000 I   0  0  0  0  0  0  0  0  0  0  0  0
    0.7145    1.2375    0.0000 C   0  0  0  0  0  0  0  0  0  0  0  0
    1.4289    0.8250    0.0000 C   0  0  0  0  0  0  0  0  0  0  0  0
    1.4289    0.0000    0.0000 C   0  0  0  0  0  0  0  0  0  0  0  0
    0.7145   -0.4125    0.0000 C   0  0  0  0  0  0  0  0  0  0  0  0
    0.7145   -1.2375    0.0000 C   0  0  0  0  0  0  0  0  0  0  0  0
    1.4289   -1.6500    0.0000 C   0  0  0  0  0  0  0  0  0  0  0  0
    1.4289   -2.4750    0.0000 N   0  0  0  0  0  0  0  0  0  0  0  0
    2.1434   -1.2375    0.0000 C   0  0  0  0  0  0  0  0  0  0  0  0
    2.1434   -0.4125    0.0000 O   0  0  0  0  0  0  0  0  0  0  0  0
    0.0000    0.0000    0.0000 C   0  0  0  0  0  0  0  0  0  0  0  0
    0.0000    0.8250    0.0000 C   0  0  0  0  0  0  0  0  0  0  0  0
    2.1434   -2.8875    0.0000 R#  0  0  0  0  0  0  0  0  0  0  0  0
    2.8579   -1.6500    0.0000 R#  0  0  0  0  0  0  0  0  0  0  0  0
  1  2  1  0
  2  3  2  0
  3  4  1  0
  4  5  2  0
  5  6  1  0
  7  6  1  1
  7  8  1  0
  8 13  1  0
  7  9  1  0
  9 14  1  0
  9 10  2  0
  5 11  1  0
 11 12  2  0
  2 12  1  0
M  RGP  2  13   1  14   2
V   13 *
V   14 *
M  END
>  <m_name>  (534)
(2S)-2-amino-3-(4-iodophenyl)propanoic acid

>  <symbol>  (534)
Phe_4I

>  <m_abbr>  (534)
Phe_4I

>  <m_type>  (534)
aa

>  <m_subtype>  (534)
non-natural

>  <m_Rgroups>  (534)
H,OH,None,None

>  <m_RgroupIdx>  (534)
12,13,None,None

>  <m_attachmentPointIdx>  (534)
7,8,None,None

>  <natAnalog>  (534)
F

>  <pdbName>  (534)
PJ3

$$$$

     RDKit          2D

 24 25  0  0  0  0  0  0  0  0999 V2000
    0.7145   -0.4125    0.0000 N   0  0  0  0  0  0  0  0  0  0  0  0
    0.7145   -1.2375    0.0000 C   0  0  0  0  0  0  0  0  0  0  0  0
    1.4289   -1.6500    0.0000 C   0  0  0  0  0  0  0  0  0  0  0  0
    1.4289   -2.4750    0.0000 C   0  0  0  0  0  0  0  0  0  0  0  0
    2.1434   -2.8875    0.0000 C   0  0  0  0  0  0  0  0  0  0  0  0
    2.1434   -3.7125    0.0000 C   0  0  0  0  0  0  0  0  0  0  0  0
    1.4289   -4.1250    0.0000 C   0  0  0  0  0  0  0  0  0  0  0  0
    1.4289   -4.9500    0.0000 N   0  0  0  0  0  0  0  0  0  0  0  0
    2.1434   -5.3625    0.0000 C   0  0  0  0  0  0  0  0  0  0  0  0
    2.8579   -4.9500    0.0000 O   0  0  0  0  0  0  0  0  0  0  0  0
    2.1434   -6.1875    0.0000 C   0  0  0  0  0  0  0  0  0  0  0  0
    2.8579   -6.6000    0.0000 C   0  0  0  0  0  0  0  0  0  0  0  0
    2.8579   -7.4250    0.0000 C   0  0  0  0  0  0  0  0  0  0  0  0
    3.5724   -7.8375    0.0000 O   0  0  0  0  0  0  0  0  0  0  0  0
    2.1434   -7.8375    0.0000 N   0  0  0  0  0  0  0  0  0  0  0  0
    1.4289   -7.4250    0.0000 C   0  0  0  0  0  0  0  0  0  0  0  0
    0.7145   -7.8375    0.0000 O   0  0  0  0  0  0  0  0  0  0  0  0
    1.4289   -6.6000    0.0000 N   0  0  0  0  0  0  0  0  0  0  0  0
    0.7145   -3.7125    0.0000 C   0  0  0  0  0  0  0  0  0  0  0  0
    0.7145   -2.8875    0.0000 C   0  0  0  0  0  0  0  0  0  0  0  0
    0.0000   -1.6500    0.0000 C   0  0  0  0  0  0  0  0  0  0  0  0
   -0.7145   -1.2375    0.0000 O   0  0  0  0  0  0  0  0  0  0  0  0
    0.0000    0.0000    0.0000 R#  0  0  0  0  0  0  0  0  0  0  0  0
    0.0000   -2.4750    0.0000 R#  0  0  0  0  0  0  0  0  0  0  0  0
 23  1  1  0
  2  1  1  0
  2  3  1  1
  3  4  1  0
  4  5  2  0
  5  6  1  0
  6  7  2  0
  7  8  1  0
  8  9  1  0
  9 10  2  0
 11  9  1  6
 11 12  1  0
 12 13  1  0
 13 14  2  0
 13 15  1  0
 15 16  1  0
 16 17  2  0
 16 18  1  0
 11 18  1  0
  7 19  1  0
 19 20  2  0
  4 20  1  0
  2 21  1  0
 21 24  1  0
 21 22  2  0
M  RGP  2  23   1  24   2
V   23 *
V   24 *
M  END
>  <m_name>  (535)
(2S)-2-amino-3-{4-[(4S)-2,6-dioxo-1,3-diazinane-4-amido]phenyl}propanoic acid

>  <symbol>  (535)
Phe_4Sdihydroorotamido

>  <m_abbr>  (535)
Phe_4Sdihydroorotamido

>  <m_type>  (535)
aa

>  <m_subtype>  (535)
non-natural

>  <m_Rgroups>  (535)
H,OH,None,None

>  <m_RgroupIdx>  (535)
22,23,None,None

>  <m_attachmentPointIdx>  (535)
0,20,None,None

>  <natAnalog>  (535)
F

>  <pdbName>  (535)
PJ6

$$$$

     RDKit          2D

 19 19  0  0  0  0  0  0  0  0999 V2000
    1.2054   -1.3036    0.0000 C   0  0  0  0  0  0  0  0  0  0  0  0
    0.8068   -0.5813    0.0000 C   0  0  0  0  0  0  0  0  0  0  0  0
   -0.0119   -0.4792    0.0000 C   0  0  0  0  0  0  0  0  0  0  0  0
   -0.1678    0.3309    0.0000 C   0  0  0  0  0  0  0  0  0  0  0  0
    0.5545    0.7295    0.0000 N   0  0  0  0  0  0  0  0  0  0  0  0
    1.1568    0.1658    0.0000 C   0  0  0  0  0  0  0  0  0  0  0  0
    1.9670    0.3217    0.0000 C   0  0  0  0  0  0  0  0  0  0  0  0
    2.2370    1.1012    0.0000 O   0  0  0  0  0  0  0  0  0  0  0  0
    2.5070   -0.3020    0.0000 N   0  0  0  0  0  0  0  0  0  0  0  0
    3.3172   -0.1461    0.0000 C   0  0  0  0  0  0  0  0  0  0  0  0
    3.8573   -0.7697    0.0000 C   0  0  0  0  0  0  0  0  0  0  0  0
    4.6674   -0.6138    0.0000 C   0  0  0  0  0  0  0  0  0  0  0  0
    5.2075   -1.2374    0.0000 C   0  0  0  0  0  0  0  0  0  0  0  0
    6.0176   -1.0815    0.0000 C   0  0  0  0  0  0  0  0  0  0  0  0
    6.5577   -1.7052    0.0000 N   0  0  0  0  0  0  0  0  0  0  0  0
    6.2877   -0.3020    0.0000 C   0  0  0  0  0  0  0  0  0  0  0  0
    7.0978   -0.1461    0.0000 O   0  0  0  0  0  0  0  0  0  0  0  0
    7.3678   -1.5493    0.0000 R#  0  0  0  0  0  0  0  0  0  0  0  0
    5.7476    0.3217    0.0000 R#  0  0  0  0  0  0  0  0  0  0  0  0
  2  1  1  6
  2  3  1  0
  3  4  1  0
  4  5  2  0
  6  5  1  0
  2  6  1  0
  6  7  1  1
  7  8  2  0
  7  9  1  0
  9 10  1  0
 10 11  1  0
 11 12  1  0
 12 13  1  0
 14 13  1  1
 14 15  1  0
 15 18  1  0
 14 16  1  0
 16 19  1  0
 16 17  2  0
M  RGP  2  18   1  19   2
V   18 *
V   19 *
M  END
>  <m_name>  (536)
Pyrrolysine

>  <symbol>  (536)
Pyl

>  <m_abbr>  (536)
Pyl

>  <m_type>  (536)
aa

>  <m_subtype>  (536)
non-natural

>  <m_Rgroups>  (536)
H,OH,None,None

>  <m_RgroupIdx>  (536)
17,18,None,None

>  <m_attachmentPointIdx>  (536)
14,15,None,None

>  <natAnalog>  (536)
X

>  <pdbName>  (536)
PJ9

$$$$

     RDKit          2D

 12 11  0  0  0  0  0  0  0  0999 V2000
   -0.8250   -2.8579    0.0000 O   0  0  0  0  0  0  0  0  0  0  0  0
   -0.4125   -2.1434    0.0000 P   0  0  0  0  0  0  0  0  0  0  0  0
    0.3020   -2.5559    0.0000 O   0  0  0  0  0  0  0  0  0  0  0  0
   -1.1270   -1.7309    0.0000 O   0  0  0  0  0  0  0  0  0  0  0  0
    0.0000   -1.4289    0.0000 O   0  0  0  0  0  0  0  0  0  0  0  0
    0.8250   -1.4289    0.0000 C   0  0  0  0  0  0  0  0  0  0  0  0
    1.2375   -0.7145    0.0000 C   0  0  0  0  0  0  0  0  0  0  0  0
    2.0625   -0.7145    0.0000 N   0  0  0  0  0  0  0  0  0  0  0  0
    0.8250    0.0000    0.0000 C   0  0  0  0  0  0  0  0  0  0  0  0
    0.0000    0.0000    0.0000 O   0  0  0  0  0  0  0  0  0  0  0  0
    2.4750    0.0000    0.0000 R#  0  0  0  0  0  0  0  0  0  0  0  0
    1.2375    0.7145    0.0000 R#  0  0  0  0  0  0  0  0  0  0  0  0
  1  2  1  0
  2  3  1  0
  2  4  2  0
  2  5  1  0
  5  6  1  0
  7  6  1  1
  7  8  1  0
  8 11  1  0
  7  9  1  0
  9 12  1  0
  9 10  2  0
M  RGP  2  11   1  12   2
V   11 *
V   12 *
M  END
>  <m_name>  (537)
(2S)-2-amino-3-(phosphonooxy)propanoic acid

>  <symbol>  (537)
Ser_PO3H2

>  <m_abbr>  (537)
Ser_PO3H2

>  <m_type>  (537)
aa

>  <m_subtype>  (537)
non-natural

>  <m_Rgroups>  (537)
H,OH,None,None

>  <m_RgroupIdx>  (537)
10,11,None,None

>  <m_attachmentPointIdx>  (537)
7,8,None,None

>  <natAnalog>  (537)
S

>  <pdbName>  (537)
SEW

$$$$

     RDKit          2D

 13 12  0  0  0  0  0  0  0  0999 V2000
    1.2375   -2.1434    0.0000 C   0  0  0  0  0  0  0  0  0  0  0  0
    0.8250   -1.4289    0.0000 C   0  0  0  0  0  0  0  0  0  0  0  0
    0.0000   -1.4289    0.0000 O   0  0  0  0  0  0  0  0  0  0  0  0
   -0.4125   -2.1434    0.0000 P   0  0  0  0  0  0  0  0  0  0  0  0
   -0.8250   -2.8579    0.0000 O   0  0  0  0  0  0  0  0  0  0  0  0
    0.3020   -2.5559    0.0000 O   0  0  0  0  0  0  0  0  0  0  0  0
   -1.1270   -1.7309    0.0000 O   0  0  0  0  0  0  0  0  0  0  0  0
    1.2375   -0.7145    0.0000 C   0  0  0  0  0  0  0  0  0  0  0  0
    2.0625   -0.7145    0.0000 N   0  0  0  0  0  0  0  0  0  0  0  0
    0.8250    0.0000    0.0000 C   0  0  0  0  0  0  0  0  0  0  0  0
    0.0000    0.0000    0.0000 O   0  0  0  0  0  0  0  0  0  0  0  0
    2.4750    0.0000    0.0000 R#  0  0  0  0  0  0  0  0  0  0  0  0
    1.2375    0.7145    0.0000 R#  0  0  0  0  0  0  0  0  0  0  0  0
  2  1  1  1
  2  3  1  0
  3  4  1  0
  4  5  1  0
  4  6  1  0
  4  7  2  0
  2  8  1  0
  8  9  1  1
  9 12  1  0
  8 10  1  0
 10 13  1  0
 10 11  2  0
M  RGP  2  12   1  13   2
V   12 *
V   13 *
M  END
>  <m_name>  (538)
(2S,3R)-2-amino-3-(phosphonooxy)butanoic acid

>  <symbol>  (538)
Thr_PO3H2

>  <m_abbr>  (538)
Thr_PO3H2

>  <m_type>  (538)
aa

>  <m_subtype>  (538)
non-natural

>  <m_Rgroups>  (538)
H,OH,None,None

>  <m_RgroupIdx>  (538)
11,12,None,None

>  <m_attachmentPointIdx>  (538)
8,9,None,None

>  <natAnalog>  (538)
T

>  <pdbName>  (538)
TBW

$$$$

     RDKit          2D

  9  9  0  0  0  0  0  0  0  0999 V2000
    0.5678    1.1143    0.0000 N   0  0  0  0  0  0  0  0  0  0  0  0
    1.2352    0.6294    0.0000 C   0  0  0  0  0  0  0  0  0  0  0  0
    0.9803   -0.1553    0.0000 S   0  0  0  0  0  0  0  0  0  0  0  0
    0.1553   -0.1553    0.0000 C   0  0  0  0  0  0  0  0  0  0  0  0
   -0.0997    0.6294    0.0000 C   0  0  0  0  0  0  0  0  0  0  0  0
   -0.8843    0.8843    0.0000 C   0  0  0  0  0  0  0  0  0  0  0  0
   -1.0558    1.6913    0.0000 O   0  0  0  0  0  0  0  0  0  0  0  0
    0.5678    1.9393    0.0000 R#  0  0  0  0  0  0  0  0  0  0  0  0
   -1.4974    0.3323    0.0000 R#  0  0  0  0  0  0  0  0  0  0  0  0
  8  1  1  0
  1  2  1  0
  2  3  1  0
  3  4  1  0
  5  4  1  0
  5  1  1  0
  5  6  1  1
  6  9  1  0
  6  7  2  0
M  RGP  2   8   1   9   2
V    8 *
V    9 *
M  END
>  <m_name>  (539)
(4R)-1,3-thiazolidine-4-carboxylic acid

>  <symbol>  (539)
Thz

>  <m_abbr>  (539)
Thz

>  <m_type>  (539)
aa

>  <m_subtype>  (539)
non-natural

>  <m_Rgroups>  (539)
H,OH,None,None

>  <m_RgroupIdx>  (539)
7,8,None,None

>  <m_attachmentPointIdx>  (539)
0,5,None,None

>  <natAnalog>  (539)
X

>  <pdbName>  (539)
TB3

$$$$

     RDKit          2D

 17 18  0  0  0  0  0  0  0  0999 V2000
    0.8838   -2.1500    0.0000 C   0  0  0  0  0  0  0  0  0  0  0  0
    1.1387   -1.3654    0.0000 N   0  0  0  0  0  0  0  0  0  0  0  0
    0.6538   -0.6979    0.0000 C   0  0  0  0  0  0  0  0  0  0  0  0
    1.1387   -0.0305    0.0000 C   0  0  0  0  0  0  0  0  0  0  0  0
    0.8838    0.7541    0.0000 C   0  0  0  0  0  0  0  0  0  0  0  0
    0.0768    0.9256    0.0000 C   0  0  0  0  0  0  0  0  0  0  0  0
   -0.1781    1.7103    0.0000 N   0  0  0  0  0  0  0  0  0  0  0  0
   -0.4752    0.3126    0.0000 C   0  0  0  0  0  0  0  0  0  0  0  0
   -0.2203   -0.4721    0.0000 O   0  0  0  0  0  0  0  0  0  0  0  0
    1.9233   -0.2854    0.0000 C   0  0  0  0  0  0  0  0  0  0  0  0
    2.6378    0.1271    0.0000 C   0  0  0  0  0  0  0  0  0  0  0  0
    3.3523   -0.2854    0.0000 C   0  0  0  0  0  0  0  0  0  0  0  0
    3.3523   -1.1104    0.0000 C   0  0  0  0  0  0  0  0  0  0  0  0
    2.6378   -1.5229    0.0000 C   0  0  0  0  0  0  0  0  0  0  0  0
    1.9233   -1.1104    0.0000 C   0  0  0  0  0  0  0  0  0  0  0  0
   -0.9851    1.8818    0.0000 R#  0  0  0  0  0  0  0  0  0  0  0  0
   -1.2822    0.4841    0.0000 R#  0  0  0  0  0  0  0  0  0  0  0  0
  1  2  1  0
  2  3  1  0
  3  4  2  0
  4  5  1  0
  6  5  1  1
  6  7  1  0
  7 16  1  0
  6  8  1  0
  8 17  1  0
  8  9  2  0
  4 10  1  0
 10 11  2  0
 11 12  1  0
 12 13  2  0
 13 14  1  0
 14 15  2  0
  2 15  1  0
 10 15  1  0
M  RGP  2  16   1  17   2
V   16 *
V   17 *
M  END
>  <m_name>  (540)
(2S)-2-amino-3-(1-methyl-1H-indol-3-yl)propanoic acid

>  <symbol>  (540)
Trp_Me

>  <m_abbr>  (540)
Trp_Me

>  <m_type>  (540)
aa

>  <m_subtype>  (540)
non-natural

>  <m_Rgroups>  (540)
H,OH,None,None

>  <m_RgroupIdx>  (540)
15,16,None,None

>  <m_attachmentPointIdx>  (540)
6,7,None,None

>  <natAnalog>  (540)
W

>  <pdbName>  (540)
TB4

$$$$

     RDKit          2D

 16 16  0  0  0  0  0  0  0  0999 V2000
    0.7145    2.0625    0.0000 C   0  0  0  0  0  0  0  0  0  0  0  0
    0.7145    1.2375    0.0000 C   0  0  0  0  0  0  0  0  0  0  0  0
    1.4289    0.8250    0.0000 C   0  0  0  0  0  0  0  0  0  0  0  0
    1.4289    0.0000    0.0000 C   0  0  0  0  0  0  0  0  0  0  0  0
    2.1434   -0.4125    0.0000 O   0  0  0  0  0  0  0  0  0  0  0  0
    0.7145   -0.4125    0.0000 C   0  0  0  0  0  0  0  0  0  0  0  0
    0.0000    0.0000    0.0000 C   0  0  0  0  0  0  0  0  0  0  0  0
   -0.7145   -0.4125    0.0000 C   0  0  0  0  0  0  0  0  0  0  0  0
    0.0000    0.8250    0.0000 C   0  0  0  0  0  0  0  0  0  0  0  0
   -0.7145    1.2375    0.0000 C   0  0  0  0  0  0  0  0  0  0  0  0
   -1.4289    0.8250    0.0000 C   0  0  0  0  0  0  0  0  0  0  0  0
   -1.4289    0.0000    0.0000 N   0  0  0  0  0  0  0  0  0  0  0  0
   -2.1434    1.2375    0.0000 C   0  0  0  0  0  0  0  0  0  0  0  0
   -2.1434    2.0625    0.0000 O   0  0  0  0  0  0  0  0  0  0  0  0
   -2.1434   -0.4125    0.0000 R#  0  0  0  0  0  0  0  0  0  0  0  0
   -2.8579    0.8250    0.0000 R#  0  0  0  0  0  0  0  0  0  0  0  0
  1  2  1  0
  2  3  2  0
  3  4  1  0
  4  5  1  0
  4  6  2  0
  6  7  1  0
  7  8  1  0
  7  9  2  0
  2  9  1  0
  9 10  1  0
 11 10  1  6
 11 12  1  0
 12 15  1  0
 11 13  1  0
 13 16  1  0
 13 14  2  0
M  RGP  2  15   1  16   2
V   15 *
V   16 *
M  END
>  <m_name>  (541)
(2S)-2-amino-3-(4-hydroxy-2,6-dimethylphenyl)propanoic acid

>  <symbol>  (541)
Tyr_26diMe

>  <m_abbr>  (541)
Tyr_26diMe

>  <m_type>  (541)
aa

>  <m_subtype>  (541)
non-natural

>  <m_Rgroups>  (541)
H,OH,None,None

>  <m_RgroupIdx>  (541)
14,15,None,None

>  <m_attachmentPointIdx>  (541)
11,12,None,None

>  <natAnalog>  (541)
Y

>  <pdbName>  (541)
TY7

$$$$

     RDKit          2D

 15 15  0  0  0  0  0  0  0  0999 V2000
    0.7145    2.0625    0.0000 O   0  0  0  0  0  0  0  0  0  0  0  0
    0.7145    1.2375    0.0000 C   0  0  0  0  0  0  0  0  0  0  0  0
    1.4289    0.8250    0.0000 C   0  0  0  0  0  0  0  0  0  0  0  0
    1.4289    0.0000    0.0000 C   0  0  0  0  0  0  0  0  0  0  0  0
    0.7145   -0.4125    0.0000 C   0  0  0  0  0  0  0  0  0  0  0  0
    0.7145   -1.2375    0.0000 C   0  0  0  0  0  0  0  0  0  0  0  0
    1.4289   -1.6500    0.0000 C   0  0  0  0  0  0  0  0  0  0  0  0
    1.4289   -2.4750    0.0000 N   0  0  0  0  0  0  0  0  0  0  0  0
    2.1434   -1.2375    0.0000 C   0  0  0  0  0  0  0  0  0  0  0  0
    2.1434   -0.4125    0.0000 O   0  0  0  0  0  0  0  0  0  0  0  0
    0.0000    0.0000    0.0000 C   0  0  0  0  0  0  0  0  0  0  0  0
    0.0000    0.8250    0.0000 C   0  0  0  0  0  0  0  0  0  0  0  0
   -0.7145    1.2375    0.0000 I   0  0  0  0  0  0  0  0  0  0  0  0
    2.1434   -2.8875    0.0000 R#  0  0  0  0  0  0  0  0  0  0  0  0
    2.8579   -1.6500    0.0000 R#  0  0  0  0  0  0  0  0  0  0  0  0
  1  2  1  0
  2  3  2  0
  3  4  1  0
  4  5  2  0
  5  6  1  0
  7  6  1  1
  7  8  1  0
  8 14  1  0
  7  9  1  0
  9 15  1  0
  9 10  2  0
  5 11  1  0
 11 12  2  0
  2 12  1  0
 12 13  1  0
M  RGP  2  14   1  15   2
V   14 *
V   15 *
M  END
>  <m_name>  (542)
(2S)-2-amino-3-(4-hydroxy-3-iodophenyl)propanoic acid

>  <symbol>  (542)
Tyr_3I

>  <m_abbr>  (542)
Tyr_3I

>  <m_type>  (542)
aa

>  <m_subtype>  (542)
non-natural

>  <m_Rgroups>  (542)
H,OH,None,None

>  <m_RgroupIdx>  (542)
13,14,None,None

>  <m_attachmentPointIdx>  (542)
7,8,None,None

>  <natAnalog>  (542)
Y

>  <pdbName>  (542)
TCS

$$$$

     RDKit          2D

 17 17  0  0  0  0  0  0  0  0999 V2000
   -0.7145    1.2375    0.0000 N   0  0  0  0  0  0  0  0  0  0  0  0
   -0.7145    2.0625    0.0000 O   0  0  0  0  0  0  0  0  0  0  0  0
   -1.4289    0.8250    0.0000 O   0  0  0  0  0  0  0  0  0  0  0  0
    0.0000    0.8250    0.0000 C   0  0  0  0  0  0  0  0  0  0  0  0
    0.0000    0.0000    0.0000 C   0  0  0  0  0  0  0  0  0  0  0  0
    0.7145    1.2375    0.0000 C   0  0  0  0  0  0  0  0  0  0  0  0
    0.7145   -0.4125    0.0000 C   0  0  0  0  0  0  0  0  0  0  0  0
    0.7145    2.0625    0.0000 O   0  0  0  0  0  0  0  0  0  0  0  0
    1.4289    0.8250    0.0000 C   0  0  0  0  0  0  0  0  0  0  0  0
    1.4289    0.0000    0.0000 C   0  0  0  0  0  0  0  0  0  0  0  0
    0.7145   -1.2375    0.0000 C   0  0  0  0  0  0  0  0  0  0  0  0
    1.4289   -1.6500    0.0000 C   0  0  0  0  0  0  0  0  0  0  0  0
    1.4289   -2.4750    0.0000 N   0  0  0  0  0  0  0  0  0  0  0  0
    2.1434   -1.2375    0.0000 C   0  0  0  0  0  0  0  0  0  0  0  0
    2.1434   -0.4125    0.0000 O   0  0  0  0  0  0  0  0  0  0  0  0
    2.1434   -2.8875    0.0000 R#  0  0  0  0  0  0  0  0  0  0  0  0
    2.8579   -1.6500    0.0000 R#  0  0  0  0  0  0  0  0  0  0  0  0
  2  1  1  0
  1  3  2  0
  4  1  1  0
  5  4  2  0
  6  4  1  0
  7  5  1  0
  8  6  1  0
  6  9  2  0
 10  7  2  0
  7 11  1  0
  9 10  1  0
 12 11  1  1
 12 13  1  0
 12 14  1  0
 13 16  1  0
 14 17  1  0
 14 15  2  0
M  CHG  2   1   1   2  -1
M  RGP  2  16   1  17   2
V   16 *
V   17 *
M  END
>  <m_name>  (543)
(2S)-2-amino-3-(4-hydroxy-3-nitrophenyl)propanoic acid

>  <symbol>  (543)
Tyr_3NO2

>  <m_abbr>  (543)
Tyr_3NO2

>  <m_type>  (543)
aa

>  <m_subtype>  (543)
non-natural

>  <m_Rgroups>  (543)
H,OH,None,None

>  <m_RgroupIdx>  (543)
15,16,None,None

>  <m_attachmentPointIdx>  (543)
12,13,None,None

>  <natAnalog>  (543)
Y

>  <pdbName>  (543)
TDQ

$$$$

     RDKit          2D

 21 22  0  0  0  0  0  0  0  0999 V2000
    2.1434   -0.4125    0.0000 O   0  0  0  0  0  0  0  0  0  0  0  0
    2.1434   -1.2375    0.0000 C   0  0  0  0  0  0  0  0  0  0  0  0
    2.8579   -1.6500    0.0000 C   0  0  0  0  0  0  0  0  0  0  0  0
    2.8579   -2.4750    0.0000 C   0  0  0  0  0  0  0  0  0  0  0  0
    2.1434   -2.8875    0.0000 C   0  0  0  0  0  0  0  0  0  0  0  0
    2.1434   -3.7125    0.0000 O   0  0  0  0  0  0  0  0  0  0  0  0
    1.4289   -4.1250    0.0000 C   0  0  0  0  0  0  0  0  0  0  0  0
    1.4289   -4.9500    0.0000 C   0  0  0  0  0  0  0  0  0  0  0  0
    0.7145   -5.3625    0.0000 C   0  0  0  0  0  0  0  0  0  0  0  0
    0.0000   -4.9500    0.0000 C   0  0  0  0  0  0  0  0  0  0  0  0
   -0.7145   -5.3625    0.0000 C   0  0  0  0  0  0  0  0  0  0  0  0
   -0.7145   -6.1875    0.0000 C   0  0  0  0  0  0  0  0  0  0  0  0
   -1.4289   -6.6000    0.0000 N   0  0  0  0  0  0  0  0  0  0  0  0
    0.0000   -6.6000    0.0000 C   0  0  0  0  0  0  0  0  0  0  0  0
    0.7145   -6.1875    0.0000 O   0  0  0  0  0  0  0  0  0  0  0  0
    0.0000   -4.1250    0.0000 C   0  0  0  0  0  0  0  0  0  0  0  0
    0.7145   -3.7125    0.0000 C   0  0  0  0  0  0  0  0  0  0  0  0
    1.4289   -2.4750    0.0000 C   0  0  0  0  0  0  0  0  0  0  0  0
    1.4289   -1.6500    0.0000 C   0  0  0  0  0  0  0  0  0  0  0  0
   -1.4289   -7.4250    0.0000 R#  0  0  0  0  0  0  0  0  0  0  0  0
    0.0000   -7.4250    0.0000 R#  0  0  0  0  0  0  0  0  0  0  0  0
  1  2  1  0
  2  3  2  0
  3  4  1  0
  4  5  2  0
  5  6  1  0
  6  7  1  0
  7  8  2  0
  8  9  1  0
  9 10  2  0
 10 11  1  0
 12 11  1  1
 12 13  1  0
 13 20  1  0
 12 14  1  0
 14 21  1  0
 14 15  2  0
 10 16  1  0
 16 17  2  0
  7 17  1  0
  5 18  1  0
 18 19  2  0
  2 19  1  0
M  RGP  2  20   1  21   2
V   20 *
V   21 *
M  END
>  <m_name>  (544)
(2S)-2-amino-3-[4-(4-hydroxyphenoxy)phenyl]propanoic acid

>  <symbol>  (544)
Tyr_Ph4OH

>  <m_abbr>  (544)
Tyr_Ph4OH

>  <m_type>  (544)
aa

>  <m_subtype>  (544)
non-natural

>  <m_Rgroups>  (544)
H,OH,None,None

>  <m_RgroupIdx>  (544)
19,20,None,None

>  <m_attachmentPointIdx>  (544)
12,13,None,None

>  <natAnalog>  (544)
Y

>  <pdbName>  (544)
TD0

$$$$

     RDKit          2D

 18 18  0  0  0  0  0  0  0  0999 V2000
   -0.7145    2.8875    0.0000 O   0  0  0  0  0  0  0  0  0  0  0  0
    0.0000    2.4750    0.0000 S   0  0  0  0  0  0  0  0  0  0  0  0
   -0.4125    1.7605    0.0000 O   0  0  0  0  0  0  0  0  0  0  0  0
    0.4125    3.1895    0.0000 O   0  0  0  0  0  0  0  0  0  0  0  0
    0.7145    2.0625    0.0000 O   0  0  0  0  0  0  0  0  0  0  0  0
    0.7145    1.2375    0.0000 C   0  0  0  0  0  0  0  0  0  0  0  0
    1.4289    0.8250    0.0000 C   0  0  0  0  0  0  0  0  0  0  0  0
    1.4289    0.0000    0.0000 C   0  0  0  0  0  0  0  0  0  0  0  0
    0.7145   -0.4125    0.0000 C   0  0  0  0  0  0  0  0  0  0  0  0
    0.7145   -1.2375    0.0000 C   0  0  0  0  0  0  0  0  0  0  0  0
    1.4289   -1.6500    0.0000 C   0  0  0  0  0  0  0  0  0  0  0  0
    1.4289   -2.4750    0.0000 N   0  0  0  0  0  0  0  0  0  0  0  0
    2.1434   -1.2375    0.0000 C   0  0  0  0  0  0  0  0  0  0  0  0
    2.1434   -0.4125    0.0000 O   0  0  0  0  0  0  0  0  0  0  0  0
    0.0000    0.0000    0.0000 C   0  0  0  0  0  0  0  0  0  0  0  0
    0.0000    0.8250    0.0000 C   0  0  0  0  0  0  0  0  0  0  0  0
    2.1434   -2.8875    0.0000 R#  0  0  0  0  0  0  0  0  0  0  0  0
    2.8579   -1.6500    0.0000 R#  0  0  0  0  0  0  0  0  0  0  0  0
  1  2  1  0
  2  3  2  0
  2  4  2  0
  2  5  1  0
  5  6  1  0
  6  7  2  0
  7  8  1  0
  8  9  2  0
  9 10  1  0
 11 10  1  1
 11 12  1  0
 12 17  1  0
 11 13  1  0
 13 18  1  0
 13 14  2  0
  9 15  1  0
 15 16  2  0
  6 16  1  0
M  RGP  2  17   1  18   2
V   17 *
V   18 *
M  END
>  <m_name>  (545)
(2S)-2-amino-3-[4-(sulfooxy)phenyl]propanoic acid

>  <symbol>  (545)
Tyr_SO3H

>  <m_abbr>  (545)
Tyr_SO3H

>  <m_type>  (545)
aa

>  <m_subtype>  (545)
non-natural

>  <m_Rgroups>  (545)
H,OH,None,None

>  <m_RgroupIdx>  (545)
16,17,None,None

>  <m_attachmentPointIdx>  (545)
11,12,None,None

>  <natAnalog>  (545)
Y

>  <pdbName>  (545)
TEW

$$$$

     RDKit          2D

 10  9  0  0  0  0  0  0  0  0999 V2000
    0.4125   -2.1434    0.0000 C   0  0  0  0  0  0  0  0  0  0  0  0
    0.8250   -1.4289    0.0000 C   0  0  0  0  0  0  0  0  0  0  0  0
    1.5395   -1.8414    0.0000 C   0  0  0  0  0  0  0  0  0  0  0  0
    0.1105   -1.0164    0.0000 O   0  0  0  0  0  0  0  0  0  0  0  0
    1.2375   -0.7145    0.0000 C   0  0  0  0  0  0  0  0  0  0  0  0
    2.0625   -0.7145    0.0000 N   0  0  0  0  0  0  0  0  0  0  0  0
    0.8250    0.0000    0.0000 C   0  0  0  0  0  0  0  0  0  0  0  0
    0.0000    0.0000    0.0000 O   0  0  0  0  0  0  0  0  0  0  0  0
    2.4750    0.0000    0.0000 R#  0  0  0  0  0  0  0  0  0  0  0  0
    1.2375    0.7145    0.0000 R#  0  0  0  0  0  0  0  0  0  0  0  0
  1  2  1  0
  2  3  1  0
  2  4  1  0
  5  2  1  0
  5  6  1  1
  6  9  1  0
  5  7  1  0
  7 10  1  0
  7  8  2  0
M  RGP  2   9   1  10   2
V    9 *
V   10 *
M  END
>  <m_name>  (546)
(2S)-2-amino-3-hydroxy-3-methylbutanoic acid

>  <symbol>  (546)
Val_3OH

>  <m_abbr>  (546)
Val_3OH

>  <m_type>  (546)
aa

>  <m_subtype>  (546)
non-natural

>  <m_Rgroups>  (546)
H,OH,None,None

>  <m_RgroupIdx>  (546)
8,9,None,None

>  <m_attachmentPointIdx>  (546)
5,6,None,None

>  <natAnalog>  (546)
V

>  <pdbName>  (546)
VAM

$$$$

     RDKit          2D

 10  9  0  0  0  0  0  0  0  0999 V2000
    0.5230    0.5230    0.0000 C   0  0  0  0  0  0  0  0  0  0  0  0
    1.2375    0.1105    0.0000 C   0  0  0  0  0  0  0  0  0  0  0  0
    1.2375   -0.7145    0.0000 C   0  0  0  0  0  0  0  0  0  0  0  0
    0.5230   -1.1270    0.0000 C   0  0  0  0  0  0  0  0  0  0  0  0
    1.9520   -1.1270    0.0000 C   0  0  0  0  0  0  0  0  0  0  0  0
    1.9520   -1.9520    0.0000 N   0  0  0  0  0  0  0  0  0  0  0  0
    2.6664   -0.7145    0.0000 C   0  0  0  0  0  0  0  0  0  0  0  0
    3.3809   -1.1270    0.0000 O   0  0  0  0  0  0  0  0  0  0  0  0
    2.6664   -2.3645    0.0000 R#  0  0  0  0  0  0  0  0  0  0  0  0
    2.6664    0.1105    0.0000 R#  0  0  0  0  0  0  0  0  0  0  0  0
  1  2  1  0
  2  3  1  0
  3  4  1  0
  5  3  1  0
  5  6  1  1
  6  9  1  0
  5  7  1  0
  7 10  1  0
  7  8  2  0
M  RGP  2   9   1  10   2
V    9 *
V   10 *
M  END
>  <m_name>  (547)
(2S)-2-amino-3-methylpentanoic acid

>  <symbol>  (547)
xiIle

>  <m_abbr>  (547)
xiIle

>  <m_type>  (547)
aa

>  <m_subtype>  (547)
non-natural

>  <m_Rgroups>  (547)
H,OH,None,None

>  <m_RgroupIdx>  (547)
8,9,None,None

>  <m_attachmentPointIdx>  (547)
5,6,None,None

>  <natAnalog>  (547)
I

>  <pdbName>  (547)
XII

$$$$

     RDKit          2D

 12 12  0  0  0  0  0  0  0  0999 V2000
    0.0000    2.4750    0.0000 C   0  0  0  0  0  0  0  0  0  0  0  0
    0.7145    2.0625    0.0000 N   0  0  0  0  0  0  0  0  0  0  0  0
    0.7145    1.2375    0.0000 C   0  0  0  0  0  0  0  0  0  0  0  0
    1.4289    0.8250    0.0000 C   0  0  0  0  0  0  0  0  0  0  0  0
    1.4289    0.0000    0.0000 C   0  0  0  0  0  0  0  0  0  0  0  0
    0.7145   -0.4125    0.0000 C   0  0  0  0  0  0  0  0  0  0  0  0
    0.0000    0.0000    0.0000 C   0  0  0  0  0  0  0  0  0  0  0  0
    0.0000    0.8250    0.0000 C   0  0  0  0  0  0  0  0  0  0  0  0
   -0.7145    1.2375    0.0000 C   0  0  0  0  0  0  0  0  0  0  0  0
   -1.4289    0.8250    0.0000 O   0  0  0  0  0  0  0  0  0  0  0  0
    1.4289    2.4750    0.0000 R#  0  0  0  0  0  0  0  0  0  0  0  0
   -0.7145    2.0625    0.0000 R#  0  0  0  0  0  0  0  0  0  0  0  0
  1  2  1  0
  2 11  1  0
  2  3  1  0
  3  4  2  0
  4  5  1  0
  5  6  2  0
  6  7  1  0
  7  8  2  0
  3  8  1  0
  8  9  1  0
  9 12  1  0
  9 10  2  0
M  RGP  2  11   1  12   2
V   11 *
V   12 *
M  END
>  <m_name>  (548)
2-(methylamino)benzoic acid

>  <symbol>  (548)
NMe2Abz

>  <m_abbr>  (548)
NMe2Abz

>  <m_type>  (548)
aa

>  <m_subtype>  (548)
non-natural

>  <m_Rgroups>  (548)
H,OH,None,None

>  <m_RgroupIdx>  (548)
10,11,None,None

>  <m_attachmentPointIdx>  (548)
1,8,None,None

>  <natAnalog>  (548)
X

>  <pdbName>  (548)
NM0

$$$$

     RDKit          2D

  8  7  0  0  0  0  0  0  0  0999 V2000
   -0.1914    0.7145    0.0000 C   0  0  0  0  0  0  0  0  0  0  0  0
    0.5230    1.1270    0.0000 N   0  0  0  0  0  0  0  0  0  0  0  0
    1.2375    0.7145    0.0000 C   0  0  0  0  0  0  0  0  0  0  0  0
    1.9520    1.1270    0.0000 C   0  0  0  0  0  0  0  0  0  0  0  0
    2.6664    0.7145    0.0000 C   0  0  0  0  0  0  0  0  0  0  0  0
    2.6664   -0.1105    0.0000 O   0  0  0  0  0  0  0  0  0  0  0  0
    0.5230    1.9520    0.0000 R#  0  0  0  0  0  0  0  0  0  0  0  0
    3.3809    1.1270    0.0000 R#  0  0  0  0  0  0  0  0  0  0  0  0
  1  2  1  0
  2  7  1  0
  2  3  1  0
  3  4  1  0
  4  5  1  0
  5  8  1  0
  5  6  2  0
M  RGP  2   7   1   8   2
V    7 *
V    8 *
M  END
>  <m_name>  (549)
3-(methylamino)propanoic acid

>  <symbol>  (549)
NMebAla

>  <m_abbr>  (549)
NMebAla

>  <m_type>  (549)
aa

>  <m_subtype>  (549)
non-natural

>  <m_Rgroups>  (549)
H,OH,None,None

>  <m_RgroupIdx>  (549)
6,7,None,None

>  <m_attachmentPointIdx>  (549)
1,4,None,None

>  <natAnalog>  (549)
X

>  <pdbName>  (549)
NM5

$$$$

     RDKit          2D

 14 14  0  0  0  0  0  0  0  0999 V2000
    1.8414    1.7605    0.0000 C   0  0  0  0  0  0  0  0  0  0  0  0
    1.4289    2.4750    0.0000 C   0  0  0  0  0  0  0  0  0  0  0  0
    0.7145    2.0625    0.0000 C   0  0  0  0  0  0  0  0  0  0  0  0
    0.7145    1.2375    0.0000 C   0  0  0  0  0  0  0  0  0  0  0  0
    1.4289    0.8250    0.0000 C   0  0  0  0  0  0  0  0  0  0  0  0
    1.4289    0.0000    0.0000 C   0  0  0  0  0  0  0  0  0  0  0  0
    0.7145   -0.4125    0.0000 C   0  0  0  0  0  0  0  0  0  0  0  0
    0.0000    0.0000    0.0000 C   0  0  0  0  0  0  0  0  0  0  0  0
    0.0000    0.8250    0.0000 C   0  0  0  0  0  0  0  0  0  0  0  0
    1.0164    3.1895    0.0000 N   0  0  0  0  0  0  0  0  0  0  0  0
    2.1434    2.8875    0.0000 C   0  0  0  0  0  0  0  0  0  0  0  0
    2.8579    2.4750    0.0000 O   0  0  0  0  0  0  0  0  0  0  0  0
    0.1914    3.1895    0.0000 R#  0  0  0  0  0  0  0  0  0  0  0  0
    2.1434    3.7125    0.0000 R#  0  0  0  0  0  0  0  0  0  0  0  0
  2  1  1  1
  2  3  1  0
  3  4  1  0
  4  5  2  0
  5  6  1  0
  6  7  2  0
  7  8  1  0
  8  9  2  0
  4  9  1  0
  2 10  1  0
 10 13  1  0
  2 11  1  0
 11 14  1  0
 11 12  2  0
M  RGP  2  13   1  14   2
V   13 *
V   14 *
M  END
>  <m_name>  (550)
(2S)-2-amino-2-methyl-3-phenylpropanoic acid

>  <symbol>  (550)
aMePhe

>  <m_abbr>  (550)
aMePhe

>  <m_type>  (550)
aa

>  <m_subtype>  (550)
non-natural

>  <m_Rgroups>  (550)
H,OH,None,None

>  <m_RgroupIdx>  (550)
12,13,None,None

>  <m_attachmentPointIdx>  (550)
9,10,None,None

>  <natAnalog>  (550)
F

>  <pdbName>  (550)
AMK

$$$$

     RDKit          2D

 10 10  0  0  0  0  0  0  0  0999 V2000
    0.0157    1.7274    0.0000 C   0  0  0  0  0  0  0  0  0  0  0  0
    0.5678    1.1143    0.0000 C   0  0  0  0  0  0  0  0  0  0  0  0
    1.2352    0.6294    0.0000 C   0  0  0  0  0  0  0  0  0  0  0  0
    0.9803   -0.1553    0.0000 C   0  0  0  0  0  0  0  0  0  0  0  0
    0.1553   -0.1553    0.0000 C   0  0  0  0  0  0  0  0  0  0  0  0
   -0.0997    0.6294    0.0000 N   0  0  0  0  0  0  0  0  0  0  0  0
    1.1198    1.7274    0.0000 C   0  0  0  0  0  0  0  0  0  0  0  0
    1.9268    1.5559    0.0000 O   0  0  0  0  0  0  0  0  0  0  0  0
   -0.8843    0.8843    0.0000 R#  0  0  0  0  0  0  0  0  0  0  0  0
    0.8649    2.5120    0.0000 R#  0  0  0  0  0  0  0  0  0  0  0  0
  2  1  1  1
  2  3  1  0
  3  4  1  0
  4  5  1  0
  5  6  1  0
  2  6  1  0
  6  9  1  0
  2  7  1  0
  7 10  1  0
  7  8  2  0
M  RGP  2   9   1  10   2
V    9 *
V   10 *
M  END
>  <m_name>  (551)
(2S)-2-methylpyrrolidine-2-carboxylic acid

>  <symbol>  (551)
aMePro

>  <m_abbr>  (551)
aMePro

>  <m_type>  (551)
aa

>  <m_subtype>  (551)
non-natural

>  <m_Rgroups>  (551)
H,OH,None,None

>  <m_RgroupIdx>  (551)
8,9,None,None

>  <m_attachmentPointIdx>  (551)
5,6,None,None

>  <natAnalog>  (551)
P

>  <pdbName>  (551)
AIP

$$$$

     RDKit          2D

 16 16  0  0  0  0  0  0  0  0999 V2000
    1.8414    1.7605    0.0000 C   0  0  0  0  0  0  0  0  0  0  0  0
    1.4289    2.4750    0.0000 C   0  0  0  0  0  0  0  0  0  0  0  0
    0.7145    2.0625    0.0000 C   0  0  0  0  0  0  0  0  0  0  0  0
    0.7145    1.2375    0.0000 C   0  0  0  0  0  0  0  0  0  0  0  0
    1.4289    0.8250    0.0000 C   0  0  0  0  0  0  0  0  0  0  0  0
    1.4289    0.0000    0.0000 C   0  0  0  0  0  0  0  0  0  0  0  0
    0.7145   -0.4125    0.0000 C   0  0  0  0  0  0  0  0  0  0  0  0
    0.7145   -1.2375    0.0000 O   0  0  0  0  0  0  0  0  0  0  0  0
    0.0000    0.0000    0.0000 C   0  0  0  0  0  0  0  0  0  0  0  0
   -0.7145   -0.4125    0.0000 O   0  0  0  0  0  0  0  0  0  0  0  0
    0.0000    0.8250    0.0000 C   0  0  0  0  0  0  0  0  0  0  0  0
    1.0164    3.1895    0.0000 N   0  0  0  0  0  0  0  0  0  0  0  0
    2.1434    2.8875    0.0000 C   0  0  0  0  0  0  0  0  0  0  0  0
    2.8579    2.4750    0.0000 O   0  0  0  0  0  0  0  0  0  0  0  0
    0.1914    3.1895    0.0000 R#  0  0  0  0  0  0  0  0  0  0  0  0
    2.1434    3.7125    0.0000 R#  0  0  0  0  0  0  0  0  0  0  0  0
  2  1  1  1
  2  3  1  0
  3  4  1  0
  4  5  2  0
  5  6  1  0
  6  7  2  0
  7  8  1  0
  7  9  1  0
  9 10  1  0
  9 11  2  0
  4 11  1  0
  2 12  1  0
 12 15  1  0
  2 13  1  0
 13 16  1  0
 13 14  2  0
M  RGP  2  15   1  16   2
V   15 *
V   16 *
M  END
>  <m_name>  (552)
(2S)-2-amino-3-(3,4-dihydroxyphenyl)-2-methylpropanoic acid

>  <symbol>  (552)
aMeTyr_3OH

>  <m_abbr>  (552)
aMeTyr_3OH

>  <m_type>  (552)
aa

>  <m_subtype>  (552)
non-natural

>  <m_Rgroups>  (552)
H,OH,None,None

>  <m_RgroupIdx>  (552)
14,15,None,None

>  <m_attachmentPointIdx>  (552)
11,12,None,None

>  <natAnalog>  (552)
Y

>  <pdbName>  (552)
AIY

$$$$

     RDKit          2D

 14 13  0  0  0  0  0  0  0  0999 V2000
    0.8250    0.0000    0.0000 C   0  0  0  0  0  0  0  0  0  0  0  0
    1.2375   -0.7145    0.0000 C   0  0  0  0  0  0  0  0  0  0  0  0
    0.8250   -1.4289    0.0000 C   0  0  0  0  0  0  0  0  0  0  0  0
    1.2375   -2.1434    0.0000 C   0  0  0  0  0  0  0  0  0  0  0  0
    2.0625   -2.1434    0.0000 C   0  0  0  0  0  0  0  0  0  0  0  0
    2.4750   -1.4289    0.0000 C   0  0  0  0  0  0  0  0  0  0  0  0
    2.4750   -2.8579    0.0000 C   0  0  0  0  0  0  0  0  0  0  0  0
    2.0625   -3.5724    0.0000 O   0  0  0  0  0  0  0  0  0  0  0  0
    3.3000   -2.8579    0.0000 C   0  0  0  0  0  0  0  0  0  0  0  0
    3.7125   -3.5724    0.0000 N   0  0  0  0  0  0  0  0  0  0  0  0
    3.7125   -2.1434    0.0000 C   0  0  0  0  0  0  0  0  0  0  0  0
    4.5375   -2.1434    0.0000 O   0  0  0  0  0  0  0  0  0  0  0  0
    4.5375   -3.5724    0.0000 R#  0  0  0  0  0  0  0  0  0  0  0  0
    3.3000   -1.4289    0.0000 R#  0  0  0  0  0  0  0  0  0  0  0  0
  2  1  1  0
  2  3  2  3
  3  4  1  0
  5  4  1  0
  5  6  1  1
  7  5  1  0
  7  8  1  6
  7  9  1  0
  9 10  1  1
 10 13  1  0
  9 11  1  0
 11 14  1  0
 11 12  2  0
M  RGP  2  13   1  14   2
V   13 *
V   14 *
M  END
>  <m_name>  (553)
(2S,3R,4R)-2-amino-3-hydroxy-4-methyloct-6-enoic acid

>  <symbol>  (553)
Bmt

>  <m_abbr>  (553)
Bmt

>  <m_type>  (553)
aa

>  <m_subtype>  (553)
non-natural

>  <m_Rgroups>  (553)
H,OH,None,None

>  <m_RgroupIdx>  (553)
12,13,None,None

>  <m_attachmentPointIdx>  (553)
9,10,None,None

>  <natAnalog>  (553)
X

>  <pdbName>  (553)
BMY

$$$$

     RDKit          2D

 14 13  0  0  0  0  0  0  0  0999 V2000
    0.8250    0.0000    0.0000 C   0  0  0  0  0  0  0  0  0  0  0  0
    1.2375   -0.7145    0.0000 C   0  0  0  0  0  0  0  0  0  0  0  0
    0.8250   -1.4289    0.0000 C   0  0  0  0  0  0  0  0  0  0  0  0
    1.2375   -2.1434    0.0000 C   0  0  0  0  0  0  0  0  0  0  0  0
    2.0625   -2.1434    0.0000 C   0  0  0  0  0  0  0  0  0  0  0  0
    2.4750   -1.4289    0.0000 C   0  0  0  0  0  0  0  0  0  0  0  0
    2.4750   -2.8579    0.0000 C   0  0  0  0  0  0  0  0  0  0  0  0
    2.0625   -3.5724    0.0000 O   0  0  0  0  0  0  0  0  0  0  0  0
    3.3000   -2.8579    0.0000 C   0  0  0  0  0  0  0  0  0  0  0  0
    3.7125   -3.5724    0.0000 N   0  0  0  0  0  0  0  0  0  0  0  0
    3.7125   -2.1434    0.0000 C   0  0  0  0  0  0  0  0  0  0  0  0
    4.5375   -2.1434    0.0000 O   0  0  0  0  0  0  0  0  0  0  0  0
    4.5375   -3.5724    0.0000 R#  0  0  0  0  0  0  0  0  0  0  0  0
    3.3000   -1.4289    0.0000 R#  0  0  0  0  0  0  0  0  0  0  0  0
  2  1  1  0
  2  3  2  3
  3  4  1  0
  5  4  1  0
  5  6  1  1
  7  5  1  0
  7  8  1  6
  7  9  1  0
  9 10  1  1
 10 13  1  0
  9 11  1  0
 11 14  1  0
 11 12  2  0
M  RGP  2  13   1  14   2
V   13 *
V   14 *
M  END
>  <m_name>  (554)
(2S,3R,4R,6E)-2-amino-3-hydroxy-4-methyloct-6-enoic acid

>  <symbol>  (554)
Bmt_E

>  <m_abbr>  (554)
Bmt_E

>  <m_type>  (554)
aa

>  <m_subtype>  (554)
non-natural

>  <m_Rgroups>  (554)
H,OH,None,None

>  <m_RgroupIdx>  (554)
12,13,None,None

>  <m_attachmentPointIdx>  (554)
9,10,None,None

>  <natAnalog>  (554)
X

>  <pdbName>  (554)
BAD

$$$$

     RDKit          2D

 15 15  0  0  0  0  0  0  0  0999 V2000
    3.1895   -2.6664    0.0000 N   0  0  0  0  0  0  0  0  0  0  0  0
    2.7770   -1.9520    0.0000 C   0  0  0  0  0  0  0  0  0  0  0  0
    1.9520   -1.9520    0.0000 C   0  0  0  0  0  0  0  0  0  0  0  0
    1.5395   -1.2375    0.0000 S   0  0  0  0  0  0  0  0  0  0  0  0
    0.7145   -1.2375    0.0000 C   0  0  0  0  0  0  0  0  0  0  0  0
    0.3020   -0.5230    0.0000 C   0  0  0  0  0  0  0  0  0  0  0  0
   -0.5230   -0.5230    0.0000 C   0  0  0  0  0  0  0  0  0  0  0  0
   -0.9355    0.1914    0.0000 C   0  0  0  0  0  0  0  0  0  0  0  0
   -0.5230    0.9059    0.0000 C   0  0  0  0  0  0  0  0  0  0  0  0
    0.3020    0.9059    0.0000 C   0  0  0  0  0  0  0  0  0  0  0  0
    0.7145    0.1914    0.0000 C   0  0  0  0  0  0  0  0  0  0  0  0
    3.1895   -1.2375    0.0000 C   0  0  0  0  0  0  0  0  0  0  0  0
    4.0145   -1.2375    0.0000 O   0  0  0  0  0  0  0  0  0  0  0  0
    4.0145   -2.6664    0.0000 R#  0  0  0  0  0  0  0  0  0  0  0  0
    2.7770   -0.5230    0.0000 R#  0  0  0  0  0  0  0  0  0  0  0  0
 14  1  1  0
  2  1  1  0
  2  3  1  1
  3  4  1  0
  4  5  1  0
  5  6  1  0
  6  7  2  0
  7  8  1  0
  8  9  2  0
  9 10  1  0
 10 11  2  0
  6 11  1  0
  2 12  1  0
 12 15  1  0
 12 13  2  0
M  RGP  2  14   1  15   2
V   14 *
V   15 *
M  END
>  <m_name>  (555)
(2R)-2-amino-3-(benzylsulfanyl)propanoic acid

>  <symbol>  (555)
Cys_Bn

>  <m_abbr>  (555)
Cys_Bn

>  <m_type>  (555)
aa

>  <m_subtype>  (555)
non-natural

>  <m_Rgroups>  (555)
H,OH,None,None

>  <m_RgroupIdx>  (555)
13,14,None,None

>  <m_attachmentPointIdx>  (555)
0,11,None,None

>  <natAnalog>  (555)
C

>  <pdbName>  (555)
CCG

$$$$

     RDKit          2D

 14 13  0  0  0  0  0  0  0  0999 V2000
    2.1434    3.4914    0.0000 O   0  0  0  0  0  0  0  0  0  0  0  0
    2.1434    2.6664    0.0000 C   0  0  0  0  0  0  0  0  0  0  0  0
    2.8579    2.2539    0.0000 O   0  0  0  0  0  0  0  0  0  0  0  0
    1.4289    2.2539    0.0000 C   0  0  0  0  0  0  0  0  0  0  0  0
    0.7145    2.6664    0.0000 C   0  0  0  0  0  0  0  0  0  0  0  0
    0.0000    2.2539    0.0000 C   0  0  0  0  0  0  0  0  0  0  0  0
   -0.7145    2.6664    0.0000 N   0  0  0  0  0  0  0  0  0  0  0  0
    0.0000    1.4289    0.0000 C   0  0  0  0  0  0  0  0  0  0  0  0
   -0.7145    1.0164    0.0000 O   0  0  0  0  0  0  0  0  0  0  0  0
    1.4289    1.4289    0.0000 C   0  0  0  0  0  0  0  0  0  0  0  0
    1.0934    0.6753    0.0000 O   0  0  0  0  0  0  0  0  0  0  0  0
   -0.7145    3.4914    0.0000 R#  0  0  0  0  0  0  0  0  0  0  0  0
    0.7145    1.0164    0.0000 R#  0  0  0  0  0  0  0  0  0  0  0  0
    2.1434    1.0164    0.0000 R#  0  0  0  0  0  0  0  0  0  0  0  0
  1  2  1  0
  2  3  2  0
  2  4  1  0
  4  5  1  0
  6  5  1  1
  6  7  1  0
  7 12  1  0
  6  8  1  0
  8 13  1  0
  8  9  2  0
  4 10  1  0
 10 14  1  0
 10 11  2  0
M  RGP  3  12   1  13   3  14   2
V   12 *
V   13 *
V   14 *
M  END
>  <m_name>  (556)
Carboxyglutamic acid

>  <symbol>  (556)
Gla

>  <m_abbr>  (556)
Gla

>  <m_type>  (556)
aa

>  <m_subtype>  (556)
non-natural

>  <m_Rgroups>  (556)
H,OH,H,None

>  <m_RgroupIdx>  (556)
11,13,12,None

>  <m_attachmentPointIdx>  (556)
6,9,7,None

>  <natAnalog>  (556)
E

>  <pdbName>  (556)
GBB

$$$$

     RDKit          2D

 13 13  0  0  0  0  0  0  0  0999 V2000
    2.5610    0.0264    0.0000 N   0  0  0  0  0  0  0  0  0  0  0  0
    2.5610   -0.7986    0.0000 C   0  0  0  0  0  0  0  0  0  0  0  0
    1.8465   -1.2111    0.0000 C   0  0  0  0  0  0  0  0  0  0  0  0
    1.8465   -2.0361    0.0000 C   0  0  0  0  0  0  0  0  0  0  0  0
    1.1321   -2.4486    0.0000 C   0  0  0  0  0  0  0  0  0  0  0  0
    1.0458   -3.2691    0.0000 C   0  0  0  0  0  0  0  0  0  0  0  0
    0.2389   -3.4406    0.0000 N   0  0  0  0  0  0  0  0  0  0  0  0
   -0.1736   -2.7261    0.0000 C   0  0  0  0  0  0  0  0  0  0  0  0
    0.3784   -2.1130    0.0000 N   0  0  0  0  0  0  0  0  0  0  0  0
    3.2755   -1.2111    0.0000 C   0  0  0  0  0  0  0  0  0  0  0  0
    3.2755   -2.0361    0.0000 O   0  0  0  0  0  0  0  0  0  0  0  0
    3.2755    0.4389    0.0000 R#  0  0  0  0  0  0  0  0  0  0  0  0
    3.9899   -0.7986    0.0000 R#  0  0  0  0  0  0  0  0  0  0  0  0
 12  1  1  0
  2  1  1  0
  2  3  1  6
  3  4  1  0
  4  5  1  0
  5  6  2  0
  6  7  1  0
  7  8  1  0
  8  9  2  0
  5  9  1  0
  2 10  1  0
 10 13  1  0
 10 11  2  0
M  RGP  2  12   1  13   2
V   12 *
V   13 *
M  END
>  <m_name>  (557)
(2S)-2-amino-4-(1H-imidazol-4-yl)butanoic acid

>  <symbol>  (557)
hHis

>  <m_abbr>  (557)
hHis

>  <m_type>  (557)
aa

>  <m_subtype>  (557)
non-natural

>  <m_Rgroups>  (557)
H,OH,None,None

>  <m_RgroupIdx>  (557)
11,12,None,None

>  <m_attachmentPointIdx>  (557)
0,9,None,None

>  <natAnalog>  (557)
H

>  <pdbName>  (557)
HHU

$$$$

     RDKit          2D

 13 13  0  0  0  0  0  0  0  0999 V2000
    0.5678    1.9393    0.0000 C   0  0  0  0  0  0  0  0  0  0  0  0
    0.5678    1.1143    0.0000 N   0  0  0  0  0  0  0  0  0  0  0  0
    1.2352    0.6294    0.0000 C   0  0  0  0  0  0  0  0  0  0  0  0
    0.9803   -0.1553    0.0000 N   0  0  0  0  0  0  0  0  0  0  0  0
    0.1553   -0.1553    0.0000 C   0  0  0  0  0  0  0  0  0  0  0  0
   -0.3297   -0.8227    0.0000 C   0  0  0  0  0  0  0  0  0  0  0  0
    0.0059   -1.5764    0.0000 C   0  0  0  0  0  0  0  0  0  0  0  0
   -0.4790   -2.2438    0.0000 N   0  0  0  0  0  0  0  0  0  0  0  0
    0.8264   -1.6626    0.0000 C   0  0  0  0  0  0  0  0  0  0  0  0
    1.3113   -0.9952    0.0000 O   0  0  0  0  0  0  0  0  0  0  0  0
   -0.0997    0.6294    0.0000 C   0  0  0  0  0  0  0  0  0  0  0  0
   -0.1435   -2.9975    0.0000 R#  0  0  0  0  0  0  0  0  0  0  0  0
    1.1619   -2.4163    0.0000 R#  0  0  0  0  0  0  0  0  0  0  0  0
  1  2  1  0
  2  3  1  0
  3  4  2  0
  4  5  1  0
  5  6  1  0
  7  6  1  1
  7  8  1  0
  8 12  1  0
  7  9  1  0
  9 13  1  0
  9 10  2  0
  5 11  2  0
  2 11  1  0
M  RGP  2  12   1  13   2
V   12 *
V   13 *
M  END
>  <m_name>  (558)
(2S)-2-amino-3-(1-methyl-1H-imidazol-4-yl)propanoic acid

>  <symbol>  (558)
His_1Me

>  <m_abbr>  (558)
His_1Me

>  <m_type>  (558)
aa

>  <m_subtype>  (558)
non-natural

>  <m_Rgroups>  (558)
H,OH,None,None

>  <m_RgroupIdx>  (558)
11,12,None,None

>  <m_attachmentPointIdx>  (558)
7,8,None,None

>  <natAnalog>  (558)
H

>  <pdbName>  (558)
HIH

$$$$

     RDKit          2D

  9  8  0  0  0  0  0  0  0  0999 V2000
    1.9520   -1.9520    0.0000 N   0  0  0  0  0  0  0  0  0  0  0  0
    1.9520   -1.1270    0.0000 C   0  0  0  0  0  0  0  0  0  0  0  0
    1.2375   -0.7145    0.0000 C   0  0  0  0  0  0  0  0  0  0  0  0
    1.2375    0.1105    0.0000 C   0  0  0  0  0  0  0  0  0  0  0  0
    0.5230    0.5230    0.0000 C   0  0  0  0  0  0  0  0  0  0  0  0
    2.6664   -0.7145    0.0000 C   0  0  0  0  0  0  0  0  0  0  0  0
    3.3809   -1.1270    0.0000 O   0  0  0  0  0  0  0  0  0  0  0  0
    2.6664   -2.3645    0.0000 R#  0  0  0  0  0  0  0  0  0  0  0  0
    2.6664    0.1105    0.0000 R#  0  0  0  0  0  0  0  0  0  0  0  0
  8  1  1  0
  2  1  1  0
  2  3  1  1
  3  4  1  0
  4  5  2  0
  2  6  1  0
  6  9  1  0
  6  7  2  0
M  RGP  2   8   1   9   2
V    8 *
V    9 *
M  END
>  <m_name>  (559)
(2S)-2-aminopent-4-enoic acid

>  <symbol>  (559)
Gly_allyl

>  <m_abbr>  (559)
Gly_allyl

>  <m_type>  (559)
aa

>  <m_subtype>  (559)
non-natural

>  <m_Rgroups>  (559)
H,OH,None,None

>  <m_RgroupIdx>  (559)
7,8,None,None

>  <m_attachmentPointIdx>  (559)
0,5,None,None

>  <natAnalog>  (559)
G

>  <pdbName>  (559)
GBY

$$$$

     RDKit          2D

  9  9  0  0  0  0  0  0  0  0999 V2000
   -0.4763    2.1263    0.0000 N   0  0  0  0  0  0  0  0  0  0  0  0
    0.2382    1.7138    0.0000 C   0  0  0  0  0  0  0  0  0  0  0  0
    0.2382    0.8888    0.0000 C   0  0  0  0  0  0  0  0  0  0  0  0
    0.6507    0.1743    0.0000 C   0  0  0  0  0  0  0  0  0  0  0  0
   -0.1743    0.1743    0.0000 C   0  0  0  0  0  0  0  0  0  0  0  0
    0.9526    2.1263    0.0000 C   0  0  0  0  0  0  0  0  0  0  0  0
    0.9526    2.9513    0.0000 O   0  0  0  0  0  0  0  0  0  0  0  0
   -0.4763    2.9513    0.0000 R#  0  0  0  0  0  0  0  0  0  0  0  0
    1.6671    1.7138    0.0000 R#  0  0  0  0  0  0  0  0  0  0  0  0
  8  1  1  0
  2  1  1  6
  2  3  1  0
  3  4  1  0
  4  5  1  0
  3  5  1  0
  2  6  1  0
  6  9  1  0
  6  7  2  0
M  RGP  2   8   1   9   2
V    8 *
V    9 *
M  END
>  <m_name>  (560)
(2S)-2-amino-2-cyclopropylacetic acid

>  <symbol>  (560)
Gly_cPr

>  <m_abbr>  (560)
Gly_cPr

>  <m_type>  (560)
aa

>  <m_subtype>  (560)
non-natural

>  <m_Rgroups>  (560)
H,OH,None,None

>  <m_RgroupIdx>  (560)
7,8,None,None

>  <m_attachmentPointIdx>  (560)
0,5,None,None

>  <natAnalog>  (560)
G

>  <pdbName>  (560)
GCI

$$$$

     RDKit          2D

  8  8  0  0  0  0  0  0  0  0999 V2000
    0.5678    1.9393    0.0000 N   0  0  0  0  0  0  0  0  0  0  0  0
    0.5678    1.1143    0.0000 C   0  0  0  0  0  0  0  0  0  0  0  0
    1.2352    0.6294    0.0000 C   0  0  0  0  0  0  0  0  0  0  0  0
    0.9803   -0.1553    0.0000 C   0  0  0  0  0  0  0  0  0  0  0  0
    0.1553   -0.1553    0.0000 O   0  0  0  0  0  0  0  0  0  0  0  0
   -0.0997    0.6294    0.0000 C   0  0  0  0  0  0  0  0  0  0  0  0
   -0.8843    0.8843    0.0000 O   0  0  0  0  0  0  0  0  0  0  0  0
   -0.1467    2.3518    0.0000 R#  0  0  0  0  0  0  0  0  0  0  0  0
  8  1  1  0
  2  1  1  1
  2  3  1  0
  3  4  1  0
  4  5  1  0
  5  6  1  0
  2  6  1  0
  6  7  2  0
M  RGP  1   8   1
V    8 *
M  END
>  <m_name>  (561)
(3S)-3-aminooxolan-2-one

>  <symbol>  (561)
Hsl

>  <m_abbr>  (561)
Hsl

>  <m_type>  (561)
aa

>  <m_subtype>  (561)
non-natural

>  <m_Rgroups>  (561)
H,None,None,None

>  <m_RgroupIdx>  (561)
7,None,None,None

>  <m_attachmentPointIdx>  (561)
0,None,None,None

>  <natAnalog>  (561)
X

>  <pdbName>  (561)
HSN

$$$$

     RDKit          2D

 16 16  0  0  0  0  0  0  0  0999 V2000
    0.7145   -1.2375    0.0000 N   0  0  0  0  0  0  0  0  0  0  0  0
    0.7145   -0.4125    0.0000 C   0  0  0  0  0  0  0  0  0  0  0  0
    0.0000    0.0000    0.0000 C   0  0  0  0  0  0  0  0  0  0  0  0
    0.0000    0.8250    0.0000 C   0  0  0  0  0  0  0  0  0  0  0  0
    0.7145    1.2375    0.0000 C   0  0  0  0  0  0  0  0  0  0  0  0
    1.4289    0.8250    0.0000 C   0  0  0  0  0  0  0  0  0  0  0  0
    1.4289    0.0000    0.0000 C   0  0  0  0  0  0  0  0  0  0  0  0
    2.1434   -0.4125    0.0000 C   0  0  0  0  0  0  0  0  0  0  0  0
    2.8579    0.0000    0.0000 O   0  0  0  0  0  0  0  0  0  0  0  0
    2.1434   -1.2375    0.0000 C   0  0  0  0  0  0  0  0  0  0  0  0
    2.8579   -1.6500    0.0000 C   0  0  0  0  0  0  0  0  0  0  0  0
    2.8579   -2.4750    0.0000 N   0  0  0  0  0  0  0  0  0  0  0  0
    3.5724   -1.2375    0.0000 C   0  0  0  0  0  0  0  0  0  0  0  0
    4.2868   -1.6500    0.0000 O   0  0  0  0  0  0  0  0  0  0  0  0
    3.5724   -2.8875    0.0000 R#  0  0  0  0  0  0  0  0  0  0  0  0
    3.5724   -0.4125    0.0000 R#  0  0  0  0  0  0  0  0  0  0  0  0
  1  2  1  0
  2  3  2  0
  3  4  1  0
  4  5  2  0
  5  6  1  0
  6  7  2  0
  2  7  1  0
  7  8  1  0
  8  9  2  0
  8 10  1  0
 11 10  1  1
 11 12  1  0
 12 15  1  0
 11 13  1  0
 13 16  1  0
 13 14  2  0
M  RGP  2  15   1  16   2
V   15 *
V   16 *
M  END
>  <m_name>  (562)
(2S)-2-amino-4-(2-aminophenyl)-4-oxobutanoic acid

>  <symbol>  (562)
Asp_Ph2NH2

>  <m_abbr>  (562)
Asp_Ph2NH2

>  <m_type>  (562)
aa

>  <m_subtype>  (562)
non-natural

>  <m_Rgroups>  (562)
H,OH,None,None

>  <m_RgroupIdx>  (562)
14,15,None,None

>  <m_attachmentPointIdx>  (562)
11,12,None,None

>  <natAnalog>  (562)
D

>  <pdbName>  (562)
AI0

$$$$

     RDKit          2D

  7  7  0  0  0  0  0  0  0  0999 V2000
    0.2382    0.8888    0.0000 N   0  0  0  0  0  0  0  0  0  0  0  0
    0.6507    0.1743    0.0000 C   0  0  0  0  0  0  0  0  0  0  0  0
   -0.1743    0.1743    0.0000 C   0  0  0  0  0  0  0  0  0  0  0  0
   -0.8888   -0.2382    0.0000 C   0  0  0  0  0  0  0  0  0  0  0  0
   -1.6033    0.1743    0.0000 O   0  0  0  0  0  0  0  0  0  0  0  0
    0.2382    1.7138    0.0000 R#  0  0  0  0  0  0  0  0  0  0  0  0
   -0.8888   -1.0632    0.0000 R#  0  0  0  0  0  0  0  0  0  0  0  0
  6  1  1  0
  1  2  1  0
  3  2  1  0
  3  1  1  0
  3  4  1  1
  4  7  1  0
  4  5  2  0
M  RGP  2   6   1   7   2
V    6 *
V    7 *
M  END
>  <m_name>  (563)
(2S)-aziridine-2-carboxylic acid

>  <symbol>  (563)
Azi

>  <m_abbr>  (563)
Azi

>  <m_type>  (563)
aa

>  <m_subtype>  (563)
non-natural

>  <m_Rgroups>  (563)
H,OH,None,None

>  <m_RgroupIdx>  (563)
5,6,None,None

>  <m_attachmentPointIdx>  (563)
0,3,None,None

>  <natAnalog>  (563)
X

>  <pdbName>  (563)
AI4

$$$$

     RDKit          2D

 11 11  0  0  0  0  0  0  0  0999 V2000
    0.7145    2.0625    0.0000 N   0  0  0  0  0  0  0  0  0  0  0  0
    0.7145    1.2375    0.0000 C   0  0  0  0  0  0  0  0  0  0  0  0
    1.4289    0.8250    0.0000 C   0  0  0  0  0  0  0  0  0  0  0  0
    1.4289    0.0000    0.0000 C   0  0  0  0  0  0  0  0  0  0  0  0
    0.7145   -0.4125    0.0000 C   0  0  0  0  0  0  0  0  0  0  0  0
    0.0000    0.0000    0.0000 C   0  0  0  0  0  0  0  0  0  0  0  0
    0.0000    0.8250    0.0000 C   0  0  0  0  0  0  0  0  0  0  0  0
   -0.7145   -0.4125    0.0000 C   0  0  0  0  0  0  0  0  0  0  0  0
   -1.4289    0.0000    0.0000 O   0  0  0  0  0  0  0  0  0  0  0  0
    1.4289    2.4750    0.0000 R#  0  0  0  0  0  0  0  0  0  0  0  0
   -0.7145   -1.2375    0.0000 R#  0  0  0  0  0  0  0  0  0  0  0  0
 10  1  1  0
  1  2  1  0
  2  3  2  0
  3  4  1  0
  4  5  2  0
  5  6  1  0
  6  7  2  0
  2  7  1  0
  6  8  1  0
  8 11  1  0
  8  9  2  0
M  RGP  2  10   1  11   2
V   10 *
V   11 *
M  END
>  <m_name>  (564)
3-Aminobenzoic acid

>  <symbol>  (564)
3Abz

>  <m_abbr>  (564)
3Abz

>  <m_type>  (564)
aa

>  <m_subtype>  (564)
non-natural

>  <m_Rgroups>  (564)
H,OH,None,None

>  <m_RgroupIdx>  (564)
9,10,None,None

>  <m_attachmentPointIdx>  (564)
0,7,None,None

>  <natAnalog>  (564)
X

>  <pdbName>  (564)
3B7

$$$$

     RDKit          2D

 11 11  0  0  0  0  0  0  0  0999 V2000
    0.7145    2.0625    0.0000 N   0  0  0  0  0  0  0  0  0  0  0  0
    0.7145    1.2375    0.0000 C   0  0  0  0  0  0  0  0  0  0  0  0
    1.4289    0.8250    0.0000 C   0  0  0  0  0  0  0  0  0  0  0  0
    1.4289    0.0000    0.0000 C   0  0  0  0  0  0  0  0  0  0  0  0
    0.7145   -0.4125    0.0000 C   0  0  0  0  0  0  0  0  0  0  0  0
    0.0000    0.0000    0.0000 C   0  0  0  0  0  0  0  0  0  0  0  0
    0.0000    0.8250    0.0000 C   0  0  0  0  0  0  0  0  0  0  0  0
    0.7145   -1.2375    0.0000 C   0  0  0  0  0  0  0  0  0  0  0  0
    0.0000   -1.6500    0.0000 O   0  0  0  0  0  0  0  0  0  0  0  0
    0.0000    2.4750    0.0000 R#  0  0  0  0  0  0  0  0  0  0  0  0
    1.4289   -1.6500    0.0000 R#  0  0  0  0  0  0  0  0  0  0  0  0
 10  1  1  0
  1  2  1  0
  2  3  2  0
  3  4  1  0
  4  5  2  0
  5  6  1  0
  6  7  2  0
  2  7  1  0
  5  8  1  0
  8 11  1  0
  8  9  2  0
M  RGP  2  10   1  11   2
V   10 *
V   11 *
M  END
>  <m_name>  (565)
4-Aminobenzoic acid

>  <symbol>  (565)
4Abz

>  <m_abbr>  (565)
4Abz

>  <m_type>  (565)
aa

>  <m_subtype>  (565)
non-natural

>  <m_Rgroups>  (565)
H,OH,None,None

>  <m_RgroupIdx>  (565)
9,10,None,None

>  <m_attachmentPointIdx>  (565)
0,7,None,None

>  <natAnalog>  (565)
X

>  <pdbName>  (565)
4AI

$$$$

     RDKit          2D

 11 11  0  0  0  0  0  0  0  0999 V2000
    0.1842    1.8695    0.0000 N   0  0  0  0  0  0  0  0  0  0  0  0
    0.7145    1.2375    0.0000 C   0  0  0  0  0  0  0  0  0  0  0  0
    1.4289    0.8250    0.0000 C   0  0  0  0  0  0  0  0  0  0  0  0
    1.4289    0.0000    0.0000 C   0  0  0  0  0  0  0  0  0  0  0  0
    0.7145   -0.4125    0.0000 C   0  0  0  0  0  0  0  0  0  0  0  0
    0.0000    0.0000    0.0000 C   0  0  0  0  0  0  0  0  0  0  0  0
    0.0000    0.8250    0.0000 C   0  0  0  0  0  0  0  0  0  0  0  0
    1.2448    1.8695    0.0000 C   0  0  0  0  0  0  0  0  0  0  0  0
    0.9626    2.6447    0.0000 O   0  0  0  0  0  0  0  0  0  0  0  0
   -0.6283    1.7262    0.0000 R#  0  0  0  0  0  0  0  0  0  0  0  0
    2.0572    1.7262    0.0000 R#  0  0  0  0  0  0  0  0  0  0  0  0
 10  1  1  0
  1  2  1  0
  2  3  1  0
  3  4  1  0
  4  5  1  0
  5  6  1  0
  6  7  1  0
  2  7  1  0
  2  8  1  0
  8 11  1  0
  8  9  2  0
M  RGP  2  10   1  11   2
V   10 *
V   11 *
M  END
>  <m_name>  (566)
1-aminocyclohexane-1-carboxylic acid

>  <symbol>  (566)
Ac6c

>  <m_abbr>  (566)
Ac6c

>  <m_type>  (566)
aa

>  <m_subtype>  (566)
non-natural

>  <m_Rgroups>  (566)
H,OH,None,None

>  <m_RgroupIdx>  (566)
9,10,None,None

>  <m_attachmentPointIdx>  (566)
0,7,None,None

>  <natAnalog>  (566)
X

>  <pdbName>  (566)
AJC

$$$$

     RDKit          2D

  7  6  0  0  0  0  0  0  0  0999 V2000
    0.5230    1.1270    0.0000 N   0  0  0  0  0  0  0  0  0  0  0  0
    1.2375    0.7145    0.0000 C   0  0  0  0  0  0  0  0  0  0  0  0
    1.9520    1.1270    0.0000 C   0  0  0  0  0  0  0  0  0  0  0  0
    2.6664    0.7145    0.0000 C   0  0  0  0  0  0  0  0  0  0  0  0
    2.6664   -0.1105    0.0000 O   0  0  0  0  0  0  0  0  0  0  0  0
   -0.1914    0.7145    0.0000 R#  0  0  0  0  0  0  0  0  0  0  0  0
    3.3809    1.1270    0.0000 R#  0  0  0  0  0  0  0  0  0  0  0  0
  6  1  1  0
  1  2  1  0
  2  3  1  0
  3  4  1  0
  4  7  1  0
  4  5  2  0
M  RGP  2   6   1   7   2
V    6 *
V    7 *
M  END
>  <m_name>  (567)
3-aminopropanoic acid

>  <symbol>  (567)
bAla

>  <m_abbr>  (567)
bAla

>  <m_type>  (567)
aa

>  <m_subtype>  (567)
non-natural

>  <m_Rgroups>  (567)
H,OH,None,None

>  <m_RgroupIdx>  (567)
5,6,None,None

>  <m_attachmentPointIdx>  (567)
0,3,None,None

>  <natAnalog>  (567)
A

>  <pdbName>  (567)
BBD

$$$$

     RDKit          2D

 14 13  0  0  0  0  0  0  0  0999 V2000
    0.8250    0.0000    0.0000 C   0  0  0  0  0  0  0  0  0  0  0  0
    1.2375   -0.7145    0.0000 C   0  0  0  0  0  0  0  0  0  0  0  0
    0.8250   -1.4289    0.0000 C   0  0  0  0  0  0  0  0  0  0  0  0
    1.2375   -2.1434    0.0000 C   0  0  0  0  0  0  0  0  0  0  0  0
    2.0625   -2.1434    0.0000 C   0  0  0  0  0  0  0  0  0  0  0  0
    2.4750   -1.4289    0.0000 C   0  0  0  0  0  0  0  0  0  0  0  0
    2.4750   -2.8579    0.0000 C   0  0  0  0  0  0  0  0  0  0  0  0
    2.0625   -3.5724    0.0000 O   0  0  0  0  0  0  0  0  0  0  0  0
    3.3000   -2.8579    0.0000 C   0  0  0  0  0  0  0  0  0  0  0  0
    3.7125   -3.5724    0.0000 N   0  0  0  0  0  0  0  0  0  0  0  0
    3.7125   -2.1434    0.0000 C   0  0  0  0  0  0  0  0  0  0  0  0
    4.5375   -2.1434    0.0000 O   0  0  0  0  0  0  0  0  0  0  0  0
    4.5375   -3.5724    0.0000 R#  0  0  0  0  0  0  0  0  0  0  0  0
    3.3000   -1.4289    0.0000 R#  0  0  0  0  0  0  0  0  0  0  0  0
  2  1  1  0
  2  3  2  3
  3  4  1  0
  5  4  1  0
  5  6  1  6
  7  5  1  0
  7  8  1  1
  7  9  1  0
  9 10  1  6
 10 13  1  0
  9 11  1  0
 11 14  1  0
 11 12  2  0
M  RGP  2  13   1  14   2
V   13 *
V   14 *
M  END
>  <m_name>  (568)
(2R,3S,4S)-2-amino-3-hydroxy-4-methyloct-6-enoic acid

>  <symbol>  (568)
D_Bmt

>  <m_abbr>  (568)
D_Bmt

>  <m_type>  (568)
aa

>  <m_subtype>  (568)
non-natural

>  <m_Rgroups>  (568)
H,OH,None,None

>  <m_RgroupIdx>  (568)
12,13,None,None

>  <m_attachmentPointIdx>  (568)
9,10,None,None

>  <natAnalog>  (568)
X

>  <pdbName>  (568)
D1O

$$$$

     RDKit          2D

 14 13  0  0  0  0  0  0  0  0999 V2000
    0.8250    0.0000    0.0000 C   0  0  0  0  0  0  0  0  0  0  0  0
    1.2375   -0.7145    0.0000 C   0  0  0  0  0  0  0  0  0  0  0  0
    0.8250   -1.4289    0.0000 C   0  0  0  0  0  0  0  0  0  0  0  0
    1.2375   -2.1434    0.0000 C   0  0  0  0  0  0  0  0  0  0  0  0
    2.0625   -2.1434    0.0000 C   0  0  0  0  0  0  0  0  0  0  0  0
    2.4750   -1.4289    0.0000 C   0  0  0  0  0  0  0  0  0  0  0  0
    2.4750   -2.8579    0.0000 C   0  0  0  0  0  0  0  0  0  0  0  0
    2.0625   -3.5724    0.0000 O   0  0  0  0  0  0  0  0  0  0  0  0
    3.3000   -2.8579    0.0000 C   0  0  0  0  0  0  0  0  0  0  0  0
    3.7125   -3.5724    0.0000 N   0  0  0  0  0  0  0  0  0  0  0  0
    3.7125   -2.1434    0.0000 C   0  0  0  0  0  0  0  0  0  0  0  0
    4.5375   -2.1434    0.0000 O   0  0  0  0  0  0  0  0  0  0  0  0
    4.5375   -3.5724    0.0000 R#  0  0  0  0  0  0  0  0  0  0  0  0
    3.3000   -1.4289    0.0000 R#  0  0  0  0  0  0  0  0  0  0  0  0
  2  1  1  0
  2  3  2  3
  3  4  1  0
  5  4  1  0
  5  6  1  6
  7  5  1  0
  7  8  1  1
  7  9  1  0
  9 10  1  6
 10 13  1  0
  9 11  1  0
 11 14  1  0
 11 12  2  0
M  RGP  2  13   1  14   2
V   13 *
V   14 *
M  END
>  <m_name>  (569)
(2R,3S,4S,6E)-2-amino-3-hydroxy-4-methyloct-6-enoic acid

>  <symbol>  (569)
D_Bmt_E

>  <m_abbr>  (569)
D_Bmt_E

>  <m_type>  (569)
aa

>  <m_subtype>  (569)
non-natural

>  <m_Rgroups>  (569)
H,OH,None,None

>  <m_RgroupIdx>  (569)
12,13,None,None

>  <m_attachmentPointIdx>  (569)
9,10,None,None

>  <natAnalog>  (569)
X

>  <pdbName>  (569)
D4C

$$$$

     RDKit          2D

 14 13  0  0  0  0  0  0  0  0999 V2000
   -0.1127   -3.1046    0.0000 N   0  0  0  0  0  0  0  0  0  0  0  0
    0.6974   -2.9487    0.0000 C   0  0  0  0  0  0  0  0  0  0  0  0
    0.9675   -2.1692    0.0000 N   0  0  0  0  0  0  0  0  0  0  0  0
    1.2375   -3.5724    0.0000 N   0  0  0  0  0  0  0  0  0  0  0  0
    2.0476   -3.4164    0.0000 C   0  0  0  0  0  0  0  0  0  0  0  0
    2.5877   -4.0401    0.0000 C   0  0  0  0  0  0  0  0  0  0  0  0
    3.3979   -3.8842    0.0000 C   0  0  0  0  0  0  0  0  0  0  0  0
    3.9379   -4.5078    0.0000 C   0  0  0  0  0  0  0  0  0  0  0  0
    4.7481   -4.3519    0.0000 C   0  0  0  0  0  0  0  0  0  0  0  0
    5.2882   -4.9755    0.0000 N   0  0  0  0  0  0  0  0  0  0  0  0
    5.0181   -3.5724    0.0000 C   0  0  0  0  0  0  0  0  0  0  0  0
    5.8283   -3.4164    0.0000 O   0  0  0  0  0  0  0  0  0  0  0  0
    6.0983   -4.8196    0.0000 R#  0  0  0  0  0  0  0  0  0  0  0  0
    4.4780   -2.9487    0.0000 R#  0  0  0  0  0  0  0  0  0  0  0  0
  1  2  1  0
  2  3  2  0
  2  4  1  0
  4  5  1  0
  5  6  1  0
  6  7  1  0
  7  8  1  0
  9  8  1  6
  9 10  1  0
 10 13  1  0
  9 11  1  0
 11 14  1  0
 11 12  2  0
M  RGP  2  13   1  14   2
V   13 *
V   14 *
M  END
>  <m_name>  (570)
(2R)-2-amino-6-[(diaminomethylidene)amino]hexanoic acid

>  <symbol>  (570)
D_hArg

>  <m_abbr>  (570)
D_hArg

>  <m_type>  (570)
aa

>  <m_subtype>  (570)
non-natural

>  <m_Rgroups>  (570)
H,OH,None,None

>  <m_RgroupIdx>  (570)
12,13,None,None

>  <m_attachmentPointIdx>  (570)
9,10,None,None

>  <natAnalog>  (570)
R

>  <pdbName>  (570)
D4E

$$$$

     RDKit          2D

 14 14  0  0  0  0  0  0  0  0999 V2000
    0.7145    2.0625    0.0000 F   0  0  0  0  0  0  0  0  0  0  0  0
    0.7145    1.2375    0.0000 C   0  0  0  0  0  0  0  0  0  0  0  0
    1.4289    0.8250    0.0000 C   0  0  0  0  0  0  0  0  0  0  0  0
    1.4289    0.0000    0.0000 C   0  0  0  0  0  0  0  0  0  0  0  0
    0.7145   -0.4125    0.0000 C   0  0  0  0  0  0  0  0  0  0  0  0
    0.7145   -1.2375    0.0000 C   0  0  0  0  0  0  0  0  0  0  0  0
    1.4289   -1.6500    0.0000 C   0  0  0  0  0  0  0  0  0  0  0  0
    1.4289   -2.4750    0.0000 N   0  0  0  0  0  0  0  0  0  0  0  0
    2.1434   -1.2375    0.0000 C   0  0  0  0  0  0  0  0  0  0  0  0
    2.1434   -0.4125    0.0000 O   0  0  0  0  0  0  0  0  0  0  0  0
    0.0000    0.0000    0.0000 C   0  0  0  0  0  0  0  0  0  0  0  0
    0.0000    0.8250    0.0000 C   0  0  0  0  0  0  0  0  0  0  0  0
    2.1434   -2.8875    0.0000 R#  0  0  0  0  0  0  0  0  0  0  0  0
    2.8579   -1.6500    0.0000 R#  0  0  0  0  0  0  0  0  0  0  0  0
  1  2  1  0
  2  3  2  0
  3  4  1  0
  4  5  2  0
  5  6  1  0
  7  6  1  6
  7  8  1  0
  8 13  1  0
  7  9  1  0
  9 14  1  0
  9 10  2  0
  5 11  1  0
 11 12  2  0
  2 12  1  0
M  RGP  2  13   1  14   2
V   13 *
V   14 *
M  END
>  <m_name>  (571)
(2R)-2-amino-3-(4-fluorophenyl)propanoic acid

>  <symbol>  (571)
D_Phe_4F

>  <m_abbr>  (571)
D_Phe_4F

>  <m_type>  (571)
aa

>  <m_subtype>  (571)
non-natural

>  <m_Rgroups>  (571)
H,OH,None,None

>  <m_RgroupIdx>  (571)
12,13,None,None

>  <m_attachmentPointIdx>  (571)
7,8,None,None

>  <natAnalog>  (571)
F

>  <pdbName>  (571)
D5A

$$$$

     RDKit          2D

 17 18  0  0  0  0  0  0  0  0999 V2000
   -0.1712   -0.6979    0.0000 C   0  0  0  0  0  0  0  0  0  0  0  0
    0.6538   -0.6979    0.0000 C   0  0  0  0  0  0  0  0  0  0  0  0
    1.1387   -0.0305    0.0000 N   0  0  0  0  0  0  0  0  0  0  0  0
    1.9233   -0.2854    0.0000 C   0  0  0  0  0  0  0  0  0  0  0  0
    2.6378    0.1271    0.0000 C   0  0  0  0  0  0  0  0  0  0  0  0
    3.3523   -0.2854    0.0000 C   0  0  0  0  0  0  0  0  0  0  0  0
    3.3523   -1.1104    0.0000 C   0  0  0  0  0  0  0  0  0  0  0  0
    2.6378   -1.5229    0.0000 C   0  0  0  0  0  0  0  0  0  0  0  0
    1.9233   -1.1104    0.0000 C   0  0  0  0  0  0  0  0  0  0  0  0
    1.1387   -1.3654    0.0000 C   0  0  0  0  0  0  0  0  0  0  0  0
    0.8838   -2.1500    0.0000 C   0  0  0  0  0  0  0  0  0  0  0  0
    1.4358   -2.7631    0.0000 C   0  0  0  0  0  0  0  0  0  0  0  0
    2.2428   -2.5916    0.0000 N   0  0  0  0  0  0  0  0  0  0  0  0
    1.1809   -3.5477    0.0000 C   0  0  0  0  0  0  0  0  0  0  0  0
    0.3739   -3.7192    0.0000 O   0  0  0  0  0  0  0  0  0  0  0  0
    2.7948   -3.2047    0.0000 R#  0  0  0  0  0  0  0  0  0  0  0  0
    1.7329   -4.1608    0.0000 R#  0  0  0  0  0  0  0  0  0  0  0  0
  1  2  1  0
  2  3  1  0
  3  4  1  0
  4  5  2  0
  5  6  1  0
  6  7  2  0
  7  8  1  0
  8  9  2  0
  4  9  1  0
  9 10  1  0
  2 10  2  0
 10 11  1  0
 12 11  1  1
 12 13  1  0
 13 16  1  0
 12 14  1  0
 14 17  1  0
 14 15  2  0
M  RGP  2  16   1  17   2
V   16 *
V   17 *
M  END
>  <m_name>  (572)
(2R)-2-amino-3-(2-methyl-1H-indol-3-yl)propanoic acid

>  <symbol>  (572)
D_Trp_2Me

>  <m_abbr>  (572)
D_Trp_2Me

>  <m_type>  (572)
aa

>  <m_subtype>  (572)
non-natural

>  <m_Rgroups>  (572)
H,OH,None,None

>  <m_RgroupIdx>  (572)
15,16,None,None

>  <m_attachmentPointIdx>  (572)
12,13,None,None

>  <natAnalog>  (572)
W

>  <pdbName>  (572)
D5D

$$$$

     RDKit          2D

 15 15  0  0  0  0  0  0  0  0999 V2000
   -0.7145    3.7125    0.0000 O   0  0  0  0  0  0  0  0  0  0  0  0
    0.0000    3.3000    0.0000 C   0  0  0  0  0  0  0  0  0  0  0  0
    0.7145    3.7125    0.0000 O   0  0  0  0  0  0  0  0  0  0  0  0
    0.0000    2.4750    0.0000 C   0  0  0  0  0  0  0  0  0  0  0  0
    0.7145    2.0625    0.0000 C   0  0  0  0  0  0  0  0  0  0  0  0
    0.7145    1.2375    0.0000 C   0  0  0  0  0  0  0  0  0  0  0  0
    1.4289    0.8250    0.0000 C   0  0  0  0  0  0  0  0  0  0  0  0
    1.4289    0.0000    0.0000 C   0  0  0  0  0  0  0  0  0  0  0  0
    0.7145   -0.4125    0.0000 C   0  0  0  0  0  0  0  0  0  0  0  0
    0.7145   -1.2375    0.0000 O   0  0  0  0  0  0  0  0  0  0  0  0
    0.0000    0.0000    0.0000 C   0  0  0  0  0  0  0  0  0  0  0  0
   -0.7145   -0.4125    0.0000 O   0  0  0  0  0  0  0  0  0  0  0  0
    0.0000    0.8250    0.0000 C   0  0  0  0  0  0  0  0  0  0  0  0
   -0.7145    2.0625    0.0000 N   0  0  0  0  0  0  0  0  0  0  0  0
   -0.7145    1.2375    0.0000 R#  0  0  0  0  0  0  0  0  0  0  0  0
  1  2  1  0
  2  3  2  0
  4  2  1  0
  4  5  1  1
  5  6  1  0
  6  7  2  0
  7  8  1  0
  8  9  2  0
  9 10  1  0
  9 11  1  0
 11 12  1  0
 11 13  2  0
  6 13  1  0
  4 14  1  0
 14 15  1  0
M  RGP  1  15   1
V   15 *
M  END
>  <m_name>  (573)
(2R)-2-amino-3-(3,4-dihydroxyphenyl)propanoic acid

>  <symbol>  (573)
D_Tyr_3OH

>  <m_abbr>  (573)
D_Tyr_3OH

>  <m_type>  (573)
aa

>  <m_subtype>  (573)
non-natural

>  <m_Rgroups>  (573)
H,None,None,None

>  <m_RgroupIdx>  (573)
14,None,None,None

>  <m_attachmentPointIdx>  (573)
13,None,None,None

>  <natAnalog>  (573)
Y

>  <pdbName>  (573)
D5J

$$$$

     RDKit          2D

 15 15  0  0  0  0  0  0  0  0999 V2000
    0.0000    2.4750    0.0000 C   0  0  0  0  0  0  0  0  0  0  0  0
    0.7145    2.0625    0.0000 O   0  0  0  0  0  0  0  0  0  0  0  0
    0.7145    1.2375    0.0000 C   0  0  0  0  0  0  0  0  0  0  0  0
    1.4289    0.8250    0.0000 C   0  0  0  0  0  0  0  0  0  0  0  0
    1.4289    0.0000    0.0000 C   0  0  0  0  0  0  0  0  0  0  0  0
    0.7145   -0.4125    0.0000 C   0  0  0  0  0  0  0  0  0  0  0  0
    0.7145   -1.2375    0.0000 C   0  0  0  0  0  0  0  0  0  0  0  0
    1.4289   -1.6500    0.0000 C   0  0  0  0  0  0  0  0  0  0  0  0
    1.4289   -2.4750    0.0000 N   0  0  0  0  0  0  0  0  0  0  0  0
    2.1434   -1.2375    0.0000 C   0  0  0  0  0  0  0  0  0  0  0  0
    2.1434   -0.4125    0.0000 O   0  0  0  0  0  0  0  0  0  0  0  0
    0.0000    0.0000    0.0000 C   0  0  0  0  0  0  0  0  0  0  0  0
    0.0000    0.8250    0.0000 C   0  0  0  0  0  0  0  0  0  0  0  0
    2.1434   -2.8875    0.0000 R#  0  0  0  0  0  0  0  0  0  0  0  0
    2.8579   -1.6500    0.0000 R#  0  0  0  0  0  0  0  0  0  0  0  0
  1  2  1  0
  2  3  1  0
  3  4  2  0
  4  5  1  0
  5  6  2  0
  6  7  1  0
  8  7  1  6
  8  9  1  0
  9 14  1  0
  8 10  1  0
 10 15  1  0
 10 11  2  0
  6 12  1  0
 12 13  2  0
  3 13  1  0
M  RGP  2  14   1  15   2
V   14 *
V   15 *
M  END
>  <m_name>  (574)
(2R)-2-amino-3-(4-methoxyphenyl)propanoic acid

>  <symbol>  (574)
D_Tyr_Me

>  <m_abbr>  (574)
D_Tyr_Me

>  <m_type>  (574)
aa

>  <m_subtype>  (574)
non-natural

>  <m_Rgroups>  (574)
H,OH,None,None

>  <m_RgroupIdx>  (574)
13,14,None,None

>  <m_attachmentPointIdx>  (574)
8,9,None,None

>  <natAnalog>  (574)
Y

>  <pdbName>  (574)
D5K

$$$$

     RDKit          2D

 10  9  0  0  0  0  0  0  0  0999 V2000
    0.5230    0.5230    0.0000 C   0  0  0  0  0  0  0  0  0  0  0  0
    1.2375    0.1105    0.0000 C   0  0  0  0  0  0  0  0  0  0  0  0
    1.2375   -0.7145    0.0000 C   0  0  0  0  0  0  0  0  0  0  0  0
    0.5230   -1.1270    0.0000 C   0  0  0  0  0  0  0  0  0  0  0  0
    1.9520   -1.1270    0.0000 C   0  0  0  0  0  0  0  0  0  0  0  0
    1.9520   -1.9520    0.0000 N   0  0  0  0  0  0  0  0  0  0  0  0
    2.6664   -0.7145    0.0000 C   0  0  0  0  0  0  0  0  0  0  0  0
    3.3809   -1.1270    0.0000 O   0  0  0  0  0  0  0  0  0  0  0  0
    2.6664   -2.3645    0.0000 R#  0  0  0  0  0  0  0  0  0  0  0  0
    2.6664    0.1105    0.0000 R#  0  0  0  0  0  0  0  0  0  0  0  0
  1  2  1  0
  2  3  1  0
  3  4  1  0
  5  3  1  0
  5  6  1  6
  6  9  1  0
  5  7  1  0
  7 10  1  0
  7  8  2  0
M  RGP  2   9   1  10   2
V    9 *
V   10 *
M  END
>  <m_name>  (575)
(2R)-2-amino-3-methylpentanoic acid

>  <symbol>  (575)
D_xiIle

>  <m_abbr>  (575)
D_xiIle

>  <m_type>  (575)
aa

>  <m_subtype>  (575)
non-natural

>  <m_Rgroups>  (575)
H,OH,None,None

>  <m_RgroupIdx>  (575)
8,9,None,None

>  <m_attachmentPointIdx>  (575)
5,6,None,None

>  <natAnalog>  (575)
I

>  <pdbName>  (575)
D5L

$$$$

     RDKit          2D

 14 13  0  0  0  0  0  0  0  0999 V2000
   -0.1127   -3.1046    0.0000 C   0  0  0  0  0  0  0  0  0  0  0  0
    0.6974   -2.9487    0.0000 C   0  0  0  0  0  0  0  0  0  0  0  0
    0.9675   -2.1692    0.0000 C   0  0  0  0  0  0  0  0  0  0  0  0
    1.2375   -3.5724    0.0000 N   0  0  0  0  0  0  0  0  0  0  0  0
    2.0476   -3.4164    0.0000 C   0  0  0  0  0  0  0  0  0  0  0  0
    2.5877   -4.0401    0.0000 C   0  0  0  0  0  0  0  0  0  0  0  0
    3.3979   -3.8842    0.0000 C   0  0  0  0  0  0  0  0  0  0  0  0
    3.9379   -4.5078    0.0000 C   0  0  0  0  0  0  0  0  0  0  0  0
    4.7481   -4.3519    0.0000 C   0  0  0  0  0  0  0  0  0  0  0  0
    5.2882   -4.9755    0.0000 N   0  0  0  0  0  0  0  0  0  0  0  0
    5.0181   -3.5724    0.0000 C   0  0  0  0  0  0  0  0  0  0  0  0
    5.8283   -3.4164    0.0000 O   0  0  0  0  0  0  0  0  0  0  0  0
    6.0983   -4.8196    0.0000 R#  0  0  0  0  0  0  0  0  0  0  0  0
    4.4780   -2.9487    0.0000 R#  0  0  0  0  0  0  0  0  0  0  0  0
  1  2  1  0
  2  3  1  0
  2  4  1  0
  4  5  1  0
  5  6  1  0
  6  7  1  0
  7  8  1  0
  9  8  1  1
  9 10  1  0
 10 13  1  0
  9 11  1  0
 11 14  1  0
 11 12  2  0
M  RGP  2  13   1  14   2
V   13 *
V   14 *
M  END
>  <m_name>  (576)
(2S)-2-amino-6-[(propan-2-yl)amino]hexanoic acid

>  <symbol>  (576)
Lys_iPr

>  <m_abbr>  (576)
Lys_iPr

>  <m_type>  (576)
aa

>  <m_subtype>  (576)
non-natural

>  <m_Rgroups>  (576)
H,OH,None,None

>  <m_RgroupIdx>  (576)
12,13,None,None

>  <m_attachmentPointIdx>  (576)
9,10,None,None

>  <natAnalog>  (576)
K

>  <pdbName>  (576)
LA5

$$$$

     RDKit          2D

  8  8  0  0  0  0  0  0  0  0999 V2000
    0.7145    2.0625    0.0000 C   0  0  0  0  0  0  0  0  0  0  0  0
    0.7145    1.2375    0.0000 C   0  0  0  0  0  0  0  0  0  0  0  0
    1.4289    0.8250    0.0000 C   0  0  0  0  0  0  0  0  0  0  0  0
    1.4289    0.0000    0.0000 C   0  0  0  0  0  0  0  0  0  0  0  0
    0.7145   -0.4125    0.0000 C   0  0  0  0  0  0  0  0  0  0  0  0
    0.0000    0.0000    0.0000 C   0  0  0  0  0  0  0  0  0  0  0  0
    0.0000    0.8250    0.0000 C   0  0  0  0  0  0  0  0  0  0  0  0
    0.0000    2.4750    0.0000 R#  0  0  0  0  0  0  0  0  0  0  0  0
  8  1  1  0
  1  2  1  0
  2  3  2  0
  3  4  1  0
  4  5  2  0
  5  6  1  0
  6  7  2  0
  2  7  1  0
M  RGP  1   8   1
V    8 *
M  END
>  <m_name>  (577)
C-Terminal toluene

>  <symbol>  (577)
_Bn

>  <m_abbr>  (577)
_Bn

>  <m_type>  (577)
aa

>  <m_subtype>  (577)
aa

>  <m_Rgroups>  (577)
H,None,None,None

>  <m_RgroupIdx>  (577)
7,None,None,None

>  <m_attachmentPointIdx>  (577)
0,None,None,None

>  <natAnalog>  (577)
X

>  <pdbName>  (577)
BN0

$$$$

     RDKit          2D

  9  9  0  0  0  0  0  0  0  0999 V2000
    0.0000    2.4750    0.0000 O   0  0  0  0  0  0  0  0  0  0  0  0
    0.7145    2.0625    0.0000 C   0  0  0  0  0  0  0  0  0  0  0  0
    0.7145    1.2375    0.0000 C   0  0  0  0  0  0  0  0  0  0  0  0
    1.4289    0.8250    0.0000 C   0  0  0  0  0  0  0  0  0  0  0  0
    1.4289    0.0000    0.0000 C   0  0  0  0  0  0  0  0  0  0  0  0
    0.7145   -0.4125    0.0000 C   0  0  0  0  0  0  0  0  0  0  0  0
    0.0000    0.0000    0.0000 C   0  0  0  0  0  0  0  0  0  0  0  0
    0.0000    0.8250    0.0000 C   0  0  0  0  0  0  0  0  0  0  0  0
    0.0000    3.3000    0.0000 R#  0  0  0  0  0  0  0  0  0  0  0  0
  9  1  1  0
  1  2  1  0
  2  3  1  0
  3  4  2  0
  4  5  1  0
  5  6  2  0
  6  7  1  0
  7  8  2  0
  3  8  1  0
M  RGP  1   9   1
V    9 *
M  END
>  <m_name>  (578)
C-Terminal phenylmethanol

>  <symbol>  (578)
_OBn

>  <m_abbr>  (578)
_OBn

>  <m_type>  (578)
aa

>  <m_subtype>  (578)
aa

>  <m_Rgroups>  (578)
H,None,None,None

>  <m_RgroupIdx>  (578)
8,None,None,None

>  <m_attachmentPointIdx>  (578)
0,None,None,None

>  <natAnalog>  (578)
X

>  <pdbName>  (578)
OBJ

$$$$

     RDKit          2D

  7  7  0  0  0  0  0  0  0  0999 V2000
    0.7145    1.2375    0.0000 C   0  0  0  0  0  0  0  0  0  0  0  0
    1.4289    0.8250    0.0000 C   0  0  0  0  0  0  0  0  0  0  0  0
    1.4289    0.0000    0.0000 C   0  0  0  0  0  0  0  0  0  0  0  0
    0.7145   -0.4125    0.0000 C   0  0  0  0  0  0  0  0  0  0  0  0
    0.0000    0.0000    0.0000 C   0  0  0  0  0  0  0  0  0  0  0  0
    0.0000    0.8250    0.0000 C   0  0  0  0  0  0  0  0  0  0  0  0
    0.7145    2.0625    0.0000 R#  0  0  0  0  0  0  0  0  0  0  0  0
  7  1  1  0
  1  2  2  0
  2  3  1  0
  3  4  2  0
  4  5  1  0
  5  6  2  0
  1  6  1  0
M  RGP  1   7   1
V    7 *
M  END
>  <m_name>  (579)
Phenyl

>  <symbol>  (579)
Ph

>  <m_abbr>  (579)
Ph

>  <m_type>  (579)
aa

>  <m_subtype>  (579)
aa

>  <m_Rgroups>  (579)
H,None,None,None

>  <m_RgroupIdx>  (579)
6,None,None,None

>  <m_attachmentPointIdx>  (579)
0,None,None,None

>  <natAnalog>  (579)
X

>  <pdbName>  (579)
PKH

$$$$

     RDKit          2D

  8  7  0  0  0  0  0  0  0  0999 V2000
    0.4125    2.1434    0.0000 C   0  0  0  0  0  0  0  0  0  0  0  0
    0.8250    1.4289    0.0000 C   0  0  0  0  0  0  0  0  0  0  0  0
    0.1105    1.0164    0.0000 C   0  0  0  0  0  0  0  0  0  0  0  0
    1.5395    1.8414    0.0000 C   0  0  0  0  0  0  0  0  0  0  0  0
    1.2375    0.7145    0.0000 O   0  0  0  0  0  0  0  0  0  0  0  0
    0.8250    0.0000    0.0000 C   0  0  0  0  0  0  0  0  0  0  0  0
    0.0000    0.0000    0.0000 O   0  0  0  0  0  0  0  0  0  0  0  0
    1.2375   -0.7145    0.0000 R#  0  0  0  0  0  0  0  0  0  0  0  0
  1  2  1  0
  2  3  1  0
  2  4  1  0
  2  5  1  0
  5  6  1  0
  6  8  1  0
  6  7  2  0
M  RGP  1   8   2
V    8 *
M  END
>  <m_name>  (580)
Tert-butyloxycarbonyl

>  <symbol>  (580)
Boc

>  <m_abbr>  (580)
Boc

>  <m_type>  (580)
aa

>  <m_subtype>  (580)
aa

>  <m_Rgroups>  (580)
None,OH,None,None

>  <m_RgroupIdx>  (580)
None,7,None,None

>  <m_attachmentPointIdx>  (580)
None,5,None,None

>  <natAnalog>  (580)
X

>  <pdbName>  (580)
BOK

$$$$

     RDKit          2D

  8  7  0  0  0  0  0  0  0  0999 V2000
    0.0000   -1.4289    0.0000 C   0  0  0  0  0  0  0  0  0  0  0  0
    0.8250   -1.4289    0.0000 C   0  0  0  0  0  0  0  0  0  0  0  0
    1.2375   -0.7145    0.0000 C   0  0  0  0  0  0  0  0  0  0  0  0
    2.0625   -0.7145    0.0000 S   0  0  0  0  0  0  0  0  0  0  0  0
    0.8250    0.0000    0.0000 C   0  0  0  0  0  0  0  0  0  0  0  0
    0.0000    0.0000    0.0000 O   0  0  0  0  0  0  0  0  0  0  0  0
    2.4750    0.0000    0.0000 R#  0  0  0  0  0  0  0  0  0  0  0  0
    1.2375    0.7145    0.0000 R#  0  0  0  0  0  0  0  0  0  0  0  0
  1  2  1  0
  3  2  1  1
  3  4  1  0
  4  7  1  0
  3  5  1  0
  5  8  1  0
  5  6  2  0
M  RGP  2   7   3   8   2
V    7 *
V    8 *
M  END
>  <m_name>  (581)
Mercaptobutanoic acid

>  <symbol>  (581)
Mba

>  <m_abbr>  (581)
Mba

>  <m_type>  (581)
aa

>  <m_subtype>  (581)
aa

>  <m_Rgroups>  (581)
None,OH,None,None

>  <m_RgroupIdx>  (581)
None,7,6,None

>  <m_attachmentPointIdx>  (581)
None,4,3,None

>  <natAnalog>  (581)
X

>  <pdbName>  (581)
MHP

$$$$

     RDKit          2D

  8  7  0  0  0  0  0  0  0  0999 V2000
   -0.1914    0.7145    0.0000 C   0  0  0  0  0  0  0  0  0  0  0  0
    0.5230    1.1270    0.0000 C   0  0  0  0  0  0  0  0  0  0  0  0
    1.2375    0.7145    0.0000 C   0  0  0  0  0  0  0  0  0  0  0  0
    1.9520    1.1270    0.0000 C   0  0  0  0  0  0  0  0  0  0  0  0
    1.9520    1.9520    0.0000 O   0  0  0  0  0  0  0  0  0  0  0  0
    2.6664    0.7145    0.0000 C   0  0  0  0  0  0  0  0  0  0  0  0
    2.6664   -0.1105    0.0000 O   0  0  0  0  0  0  0  0  0  0  0  0
    3.3809    1.1270    0.0000 R#  0  0  0  0  0  0  0  0  0  0  0  0
  1  2  1  0
  2  3  1  0
  4  3  1  0
  4  5  1  6
  4  6  1  0
  6  8  1  0
  6  7  2  0
M  RGP  1   8   2
V    8 *
M  END
>  <m_name>  (582)
2-Hydroxypentanoic acid

>  <symbol>  (582)
Hva

>  <m_abbr>  (582)
Hva

>  <m_type>  (582)
aa

>  <m_subtype>  (582)
aa

>  <m_Rgroups>  (582)
None,OH,None,None

>  <m_RgroupIdx>  (582)
None,7,None,None

>  <m_attachmentPointIdx>  (582)
None,5,None,None

>  <natAnalog>  (582)
X

>  <pdbName>  (582)
HVC

$$$$

     RDKit          2D

 10 10  0  0  0  0  0  0  0  0999 V2000
    0.0000    2.4750    0.0000 C   0  0  0  0  0  0  0  0  0  0  0  0
   -0.7145    2.0625    0.0000 O   0  0  0  0  0  0  0  0  0  0  0  0
    0.7145    2.0625    0.0000 C   0  0  0  0  0  0  0  0  0  0  0  0
    0.7145    1.2375    0.0000 C   0  0  0  0  0  0  0  0  0  0  0  0
    1.4289    0.8250    0.0000 C   0  0  0  0  0  0  0  0  0  0  0  0
    1.4289    0.0000    0.0000 C   0  0  0  0  0  0  0  0  0  0  0  0
    0.7145   -0.4125    0.0000 C   0  0  0  0  0  0  0  0  0  0  0  0
    0.0000    0.0000    0.0000 C   0  0  0  0  0  0  0  0  0  0  0  0
    0.0000    0.8250    0.0000 C   0  0  0  0  0  0  0  0  0  0  0  0
    0.0000    3.3000    0.0000 R#  0  0  0  0  0  0  0  0  0  0  0  0
 10  1  1  0
  1  2  2  0
  1  3  1  0
  3  4  1  0
  4  5  1  0
  5  6  1  0
  6  7  1  0
  7  8  1  0
  8  9  1  0
  4  9  1  0
M  RGP  1  10   2
V   10 *
M  END
>  <m_name>  (583)
2-cyclohexylacetic acid

>  <symbol>  (583)
deamino_Chg

>  <m_abbr>  (583)
deamino_Chg

>  <m_type>  (583)
aa

>  <m_subtype>  (583)
aa

>  <m_Rgroups>  (583)
None,OH,None,None

>  <m_RgroupIdx>  (583)
None,9,None,None

>  <m_attachmentPointIdx>  (583)
None,0,None,None

>  <natAnalog>  (583)
X

>  <pdbName>  (583)
D5P

$$$$

     RDKit          2D

 17 18  0  0  0  0  0  0  0  0999 V2000
    1.4289    0.8250    0.0000 C   0  0  0  0  0  0  0  0  0  0  0  0
    2.1434    1.2375    0.0000 O   0  0  0  0  0  0  0  0  0  0  0  0
    1.4289    0.0000    0.0000 C   0  0  0  0  0  0  0  0  0  0  0  0
    2.1434   -0.4125    0.0000 C   0  0  0  0  0  0  0  0  0  0  0  0
    2.1434   -1.2375    0.0000 C   0  0  0  0  0  0  0  0  0  0  0  0
    2.8579   -1.6500    0.0000 C   0  0  0  0  0  0  0  0  0  0  0  0
    2.8579   -2.4750    0.0000 C   0  0  0  0  0  0  0  0  0  0  0  0
    2.1434   -2.8875    0.0000 C   0  0  0  0  0  0  0  0  0  0  0  0
    1.4289   -2.4750    0.0000 C   0  0  0  0  0  0  0  0  0  0  0  0
    1.4289   -1.6500    0.0000 C   0  0  0  0  0  0  0  0  0  0  0  0
    2.8579    0.0000    0.0000 C   0  0  0  0  0  0  0  0  0  0  0  0
    2.8579    0.8250    0.0000 C   0  0  0  0  0  0  0  0  0  0  0  0
    3.5724    1.2375    0.0000 C   0  0  0  0  0  0  0  0  0  0  0  0
    4.2868    0.8250    0.0000 C   0  0  0  0  0  0  0  0  0  0  0  0
    4.2868    0.0000    0.0000 C   0  0  0  0  0  0  0  0  0  0  0  0
    3.5724   -0.4125    0.0000 C   0  0  0  0  0  0  0  0  0  0  0  0
    0.7145    1.2375    0.0000 R#  0  0  0  0  0  0  0  0  0  0  0  0
 17  1  1  0
  1  2  2  0
  1  3  1  0
  3  4  1  0
  4  5  1  0
  5  6  2  0
  6  7  1  0
  7  8  2  0
  8  9  1  0
  9 10  2  0
  5 10  1  0
  4 11  1  0
 11 12  2  0
 12 13  1  0
 13 14  2  0
 14 15  1  0
 15 16  2  0
 11 16  1  0
M  RGP  1  17   2
V   17 *
M  END
>  <m_name>  (584)
3,3-diphenylpropanoic acid

>  <symbol>  (584)
deamino_Dip

>  <m_abbr>  (584)
deamino_Dip

>  <m_type>  (584)
aa

>  <m_subtype>  (584)
aa

>  <m_Rgroups>  (584)
None,OH,None,None

>  <m_RgroupIdx>  (584)
None,16,None,None

>  <m_attachmentPointIdx>  (584)
None,0,None,None

>  <natAnalog>  (584)
X

>  <pdbName>  (584)
D5R

$$$$

     RDKit          2D

  8  7  0  0  0  0  0  0  0  0999 V2000
    0.4125    2.1434    0.0000 C   0  0  0  0  0  0  0  0  0  0  0  0
    0.8250    1.4289    0.0000 C   0  0  0  0  0  0  0  0  0  0  0  0
    0.1105    1.0164    0.0000 C   0  0  0  0  0  0  0  0  0  0  0  0
    1.5395    1.8414    0.0000 C   0  0  0  0  0  0  0  0  0  0  0  0
    1.2375    0.7145    0.0000 C   0  0  0  0  0  0  0  0  0  0  0  0
    0.8250    0.0000    0.0000 C   0  0  0  0  0  0  0  0  0  0  0  0
    0.0000    0.0000    0.0000 O   0  0  0  0  0  0  0  0  0  0  0  0
    1.2375   -0.7145    0.0000 R#  0  0  0  0  0  0  0  0  0  0  0  0
  1  2  1  0
  2  3  1  0
  2  4  1  0
  2  5  1  0
  5  6  1  0
  6  8  1  0
  6  7  2  0
M  RGP  1   8   2
V    8 *
M  END
>  <m_name>  (585)
3,3-dimethylbutanoic acid

>  <symbol>  (585)
deamino_Gly_tBu

>  <m_abbr>  (585)
deamino_Gly_tBu

>  <m_type>  (585)
aa

>  <m_subtype>  (585)
aa

>  <m_Rgroups>  (585)
None,OH,None,None

>  <m_RgroupIdx>  (585)
None,7,None,None

>  <m_attachmentPointIdx>  (585)
None,5,None,None

>  <natAnalog>  (585)
G

>  <pdbName>  (585)
D5S

$$$$

     RDKit          2D

 12 12  0  0  0  0  0  0  0  0999 V2000
    0.7145   -2.8875    0.0000 C   0  0  0  0  0  0  0  0  0  0  0  0
    0.7145   -3.7125    0.0000 O   0  0  0  0  0  0  0  0  0  0  0  0
    1.4289   -2.4750    0.0000 C   0  0  0  0  0  0  0  0  0  0  0  0
    2.1434   -2.8875    0.0000 C   0  0  0  0  0  0  0  0  0  0  0  0
    2.8579   -2.4750    0.0000 C   0  0  0  0  0  0  0  0  0  0  0  0
    3.5724   -2.8875    0.0000 C   0  0  0  0  0  0  0  0  0  0  0  0
    4.2868   -2.4750    0.0000 C   0  0  0  0  0  0  0  0  0  0  0  0
    5.0013   -2.8875    0.0000 C   0  0  0  0  0  0  0  0  0  0  0  0
    5.0013   -3.7125    0.0000 C   0  0  0  0  0  0  0  0  0  0  0  0
    4.2868   -4.1250    0.0000 C   0  0  0  0  0  0  0  0  0  0  0  0
    3.5724   -3.7125    0.0000 C   0  0  0  0  0  0  0  0  0  0  0  0
    0.0000   -2.4750    0.0000 R#  0  0  0  0  0  0  0  0  0  0  0  0
 12  1  1  0
  1  2  2  0
  1  3  1  0
  3  4  1  0
  4  5  1  0
  5  6  1  0
  6  7  2  0
  7  8  1  0
  8  9  2  0
  9 10  1  0
 10 11  2  0
  6 11  1  0
M  RGP  1  12   2
V   12 *
M  END
>  <m_name>  (586)
4-phenylbutanoic acid

>  <symbol>  (586)
deamino_hPhe

>  <m_abbr>  (586)
deamino_hPhe

>  <m_type>  (586)
aa

>  <m_subtype>  (586)
aa

>  <m_Rgroups>  (586)
None,OH,None,None

>  <m_RgroupIdx>  (586)
None,11,None,None

>  <m_attachmentPointIdx>  (586)
None,0,None,None

>  <natAnalog>  (586)
F

>  <pdbName>  (586)
D6B

$$$$

     RDKit          2D

 12 12  0  0  0  0  0  0  0  0999 V2000
    0.0000    2.4750    0.0000 C   0  0  0  0  0  0  0  0  0  0  0  0
    0.7145    2.0625    0.0000 O   0  0  0  0  0  0  0  0  0  0  0  0
    0.7145    1.2375    0.0000 C   0  0  0  0  0  0  0  0  0  0  0  0
    1.4289    0.8250    0.0000 C   0  0  0  0  0  0  0  0  0  0  0  0
    1.4289    0.0000    0.0000 C   0  0  0  0  0  0  0  0  0  0  0  0
    0.7145   -0.4125    0.0000 C   0  0  0  0  0  0  0  0  0  0  0  0
    0.7145   -1.2375    0.0000 C   0  0  0  0  0  0  0  0  0  0  0  0
    0.0000   -1.6500    0.0000 C   0  0  0  0  0  0  0  0  0  0  0  0
   -0.7145   -1.2375    0.0000 O   0  0  0  0  0  0  0  0  0  0  0  0
    0.0000    0.0000    0.0000 C   0  0  0  0  0  0  0  0  0  0  0  0
    0.0000    0.8250    0.0000 C   0  0  0  0  0  0  0  0  0  0  0  0
    0.0000   -2.4750    0.0000 R#  0  0  0  0  0  0  0  0  0  0  0  0
  1  2  1  0
  2  3  1  0
  3  4  2  0
  4  5  1  0
  5  6  2  0
  6  7  1  0
  7  8  1  0
  8 12  1  0
  8  9  2  0
  6 10  1  0
 10 11  2  0
  3 11  1  0
M  RGP  1  12   2
V   12 *
M  END
>  <m_name>  (587)
2-(4-methoxyphenyl)acetic acid

>  <symbol>  (587)
deamino_nTyr_Me

>  <m_abbr>  (587)
deamino_nTyr_Me

>  <m_type>  (587)
aa

>  <m_subtype>  (587)
aa

>  <m_Rgroups>  (587)
None,OH,None,None

>  <m_RgroupIdx>  (587)
None,11,None,None

>  <m_attachmentPointIdx>  (587)
None,7,None,None

>  <natAnalog>  (587)
Y

>  <pdbName>  (587)
D6H

$$$$

     RDKit          2D

 11 11  0  0  0  0  0  0  0  0999 V2000
    0.7145    2.0625    0.0000 Cl  0  0  0  0  0  0  0  0  0  0  0  0
    0.7145    1.2375    0.0000 C   0  0  0  0  0  0  0  0  0  0  0  0
    1.4289    0.8250    0.0000 C   0  0  0  0  0  0  0  0  0  0  0  0
    1.4289    0.0000    0.0000 C   0  0  0  0  0  0  0  0  0  0  0  0
    0.7145   -0.4125    0.0000 C   0  0  0  0  0  0  0  0  0  0  0  0
    0.7145   -1.2375    0.0000 C   0  0  0  0  0  0  0  0  0  0  0  0
    0.0000   -1.6500    0.0000 C   0  0  0  0  0  0  0  0  0  0  0  0
   -0.7145   -1.2375    0.0000 O   0  0  0  0  0  0  0  0  0  0  0  0
    0.0000    0.0000    0.0000 C   0  0  0  0  0  0  0  0  0  0  0  0
    0.0000    0.8250    0.0000 C   0  0  0  0  0  0  0  0  0  0  0  0
    0.0000   -2.4750    0.0000 R#  0  0  0  0  0  0  0  0  0  0  0  0
  1  2  1  0
  2  3  2  0
  3  4  1  0
  4  5  2  0
  5  6  1  0
  6  7  1  0
  7 11  1  0
  7  8  2  0
  5  9  1  0
  9 10  2  0
  2 10  1  0
M  RGP  1  11   2
V   11 *
M  END
>  <m_name>  (588)
2-(4-chlorophenyl)acetic acid

>  <symbol>  (588)
deamino_Phg_4Cl

>  <m_abbr>  (588)
deamino_Phg_4Cl

>  <m_type>  (588)
aa

>  <m_subtype>  (588)
aa

>  <m_Rgroups>  (588)
None,OH,None,None

>  <m_RgroupIdx>  (588)
None,10,None,None

>  <m_attachmentPointIdx>  (588)
None,6,None,None

>  <natAnalog>  (588)
G

>  <pdbName>  (588)
D6L

$$$$

     RDKit          2D

  8  7  0  0  0  0  0  0  0  0999 V2000
    1.2375    2.1434    0.0000 C   0  0  0  0  0  0  0  0  0  0  0  0
    0.8250    1.4289    0.0000 C   0  0  0  0  0  0  0  0  0  0  0  0
    0.0000    1.4289    0.0000 C   0  0  0  0  0  0  0  0  0  0  0  0
    1.2375    0.7145    0.0000 C   0  0  0  0  0  0  0  0  0  0  0  0
    2.0625    0.7145    0.0000 O   0  0  0  0  0  0  0  0  0  0  0  0
    0.8250    0.0000    0.0000 C   0  0  0  0  0  0  0  0  0  0  0  0
    0.0000    0.0000    0.0000 O   0  0  0  0  0  0  0  0  0  0  0  0
    1.2375   -0.7145    0.0000 R#  0  0  0  0  0  0  0  0  0  0  0  0
  1  2  1  0
  2  3  1  0
  4  2  1  0
  4  5  1  1
  4  6  1  0
  6  8  1  0
  6  7  2  0
M  RGP  1   8   2
V    8 *
M  END
>  <m_name>  (589)
(2R)-2-hydroxy-3-methylbutanoic acid

>  <symbol>  (589)
D_OVal

>  <m_abbr>  (589)
D_OVal

>  <m_type>  (589)
aa

>  <m_subtype>  (589)
aa

>  <m_Rgroups>  (589)
None,OH,None,None

>  <m_RgroupIdx>  (589)
None,7,None,None

>  <m_attachmentPointIdx>  (589)
None,5,None,None

>  <natAnalog>  (589)
V

>  <pdbName>  (589)
D7O

$$$$

     RDKit          2D

  9  8  0  0  0  0  0  0  0  0999 V2000
   -0.1914    0.7145    0.0000 C   0  0  0  0  0  0  0  0  0  0  0  0
    0.5230    1.1270    0.0000 C   0  0  0  0  0  0  0  0  0  0  0  0
    0.5230    1.9520    0.0000 C   0  0  0  0  0  0  0  0  0  0  0  0
    1.2375    0.7145    0.0000 C   0  0  0  0  0  0  0  0  0  0  0  0
    1.9520    1.1270    0.0000 C   0  0  0  0  0  0  0  0  0  0  0  0
    1.9520    1.9520    0.0000 O   0  0  0  0  0  0  0  0  0  0  0  0
    2.6664    0.7145    0.0000 C   0  0  0  0  0  0  0  0  0  0  0  0
    2.6664   -0.1105    0.0000 O   0  0  0  0  0  0  0  0  0  0  0  0
    3.3809    1.1270    0.0000 R#  0  0  0  0  0  0  0  0  0  0  0  0
  1  2  1  0
  2  3  1  0
  2  4  1  0
  5  4  1  0
  5  6  1  6
  5  7  1  0
  7  9  1  0
  7  8  2  0
M  RGP  1   9   2
V    9 *
M  END
>  <m_name>  (590)
(2S)-2-hydroxy-4-methylpentanoic acid

>  <symbol>  (590)
OLeu

>  <m_abbr>  (590)
OLeu

>  <m_type>  (590)
aa

>  <m_subtype>  (590)
aa

>  <m_Rgroups>  (590)
None,OH,None,None

>  <m_RgroupIdx>  (590)
None,8,None,None

>  <m_attachmentPointIdx>  (590)
None,6,None,None

>  <natAnalog>  (590)
L

>  <pdbName>  (590)
OLG

$$$$

     RDKit          2D

  8  8  0  0  0  0  0  0  0  0999 V2000
    0.7145    2.0625    0.0000 C   0  0  0  0  0  0  0  0  0  0  0  0
    0.7145    1.2375    0.0000 C   0  0  0  0  0  0  0  0  0  0  0  0
    1.4289    0.8250    0.0000 C   0  0  0  0  0  0  0  0  0  0  0  0
    1.4289    0.0000    0.0000 C   0  0  0  0  0  0  0  0  0  0  0  0
    0.7145   -0.4125    0.0000 C   0  0  0  0  0  0  0  0  0  0  0  0
    0.0000    0.0000    0.0000 C   0  0  0  0  0  0  0  0  0  0  0  0
    0.0000    0.8250    0.0000 C   0  0  0  0  0  0  0  0  0  0  0  0
    0.0000    2.4750    0.0000 R#  0  0  0  0  0  0  0  0  0  0  0  0
  8  1  1  0
  1  2  1  0
  2  3  2  0
  3  4  1  0
  4  5  2  0
  5  6  1  0
  6  7  2  0
  2  7  1  0
M  RGP  1   8   2
V    8 *
M  END
>  <m_name>  (591)
N-Terminal toluene

>  <symbol>  (591)
Bn_

>  <m_abbr>  (591)
Bn_

>  <m_type>  (591)
aa

>  <m_subtype>  (591)
aa

>  <m_Rgroups>  (591)
None,OH,None,None

>  <m_RgroupIdx>  (591)
None,7,None,None

>  <m_attachmentPointIdx>  (591)
None,0,None,None

>  <natAnalog>  (591)
X

>  <pdbName>  (591)
BN8

$$$$

     RDKit          2D

  9  9  0  0  0  0  0  0  0  0999 V2000
    0.0000    2.4750    0.0000 O   0  0  0  0  0  0  0  0  0  0  0  0
    0.7145    2.0625    0.0000 C   0  0  0  0  0  0  0  0  0  0  0  0
    0.7145    1.2375    0.0000 C   0  0  0  0  0  0  0  0  0  0  0  0
    1.4289    0.8250    0.0000 C   0  0  0  0  0  0  0  0  0  0  0  0
    1.4289    0.0000    0.0000 C   0  0  0  0  0  0  0  0  0  0  0  0
    0.7145   -0.4125    0.0000 C   0  0  0  0  0  0  0  0  0  0  0  0
    0.0000    0.0000    0.0000 C   0  0  0  0  0  0  0  0  0  0  0  0
    0.0000    0.8250    0.0000 C   0  0  0  0  0  0  0  0  0  0  0  0
    0.0000    3.3000    0.0000 R#  0  0  0  0  0  0  0  0  0  0  0  0
  9  1  1  0
  1  2  1  0
  2  3  1  0
  3  4  2  0
  4  5  1  0
  5  6  2  0
  6  7  1  0
  7  8  2  0
  3  8  1  0
M  RGP  1   9   2
V    9 *
M  END
>  <m_name>  (592)
N-Terminal phenylmethanol

>  <symbol>  (592)
OBn_

>  <m_abbr>  (592)
OBn_

>  <m_type>  (592)
aa

>  <m_subtype>  (592)
aa

>  <m_Rgroups>  (592)
None,OH,None,None

>  <m_RgroupIdx>  (592)
None,8,None,None

>  <m_attachmentPointIdx>  (592)
None,0,None,None

>  <natAnalog>  (592)
X

>  <pdbName>  (592)
OBK

$$$$

     RDKit          2D

 10  9  0  0  0  0  0  0  0  0999 V2000
    1.0461    1.4289    0.0000 N   0  0  0  0  0  0  0  0  0  0  0  0
    1.7605    1.8414    0.0000 C   0  0  0  0  0  0  0  0  0  0  0  0
    2.4750    1.4289    0.0000 C   0  0  0  0  0  0  0  0  0  0  0  0
    3.1895    1.8414    0.0000 C   0  0  0  0  0  0  0  0  0  0  0  0
    3.9039    1.4289    0.0000 C   0  0  0  0  0  0  0  0  0  0  0  0
    4.6184    1.8414    0.0000 C   0  0  0  0  0  0  0  0  0  0  0  0
    5.3329    1.4289    0.0000 C   0  0  0  0  0  0  0  0  0  0  0  0
    6.0474    1.8414    0.0000 O   0  0  0  0  0  0  0  0  0  0  0  0
    5.3329    0.6039    0.0000 O   0  0  0  0  0  0  0  0  0  0  0  0
    4.6184    2.6664    0.0000 R#  0  0  0  0  0  0  0  0  0  0  0  0
  1  2  1  0
  2  3  1  0
  3  4  1  0
  4  5  1  0
  5  6  1  0
  6 10  1  0
  6  7  1  0
  7  8  1  0
  7  9  2  0
M  RGP  1  10   2
V   10 *
M  END
>  <m_name>  (593)
Deamino-Lysine

>  <symbol>  (593)
deamino_Lys

>  <m_abbr>  (593)
deamino_Lys

>  <m_type>  (593)
aa

>  <m_subtype>  (593)
aa

>  <m_Rgroups>  (593)
None,OH,None,None

>  <m_RgroupIdx>  (593)
None,9,None,None

>  <m_attachmentPointIdx>  (593)
None,5,None,None

>  <natAnalog>  (593)
K

>  <pdbName>  (593)
D8O

$$$$

     RDKit          2D

 12 12  0  0  0  0  0  0  0  0999 V2000
    0.0000    2.4750    0.0000 C   0  0  0  0  0  0  0  0  0  0  0  0
    0.7145    2.0625    0.0000 N   0  0  0  0  0  0  0  0  0  0  0  0
    1.4289    2.4750    0.0000 C   0  0  0  0  0  0  0  0  0  0  0  0
    0.7145    1.2375    0.0000 C   0  0  0  0  0  0  0  0  0  0  0  0
    1.4289    0.8250    0.0000 C   0  0  0  0  0  0  0  0  0  0  0  0
    1.4289    0.0000    0.0000 C   0  0  0  0  0  0  0  0  0  0  0  0
    0.7145   -0.4125    0.0000 C   0  0  0  0  0  0  0  0  0  0  0  0
    0.0000    0.0000    0.0000 C   0  0  0  0  0  0  0  0  0  0  0  0
    0.0000    0.8250    0.0000 C   0  0  0  0  0  0  0  0  0  0  0  0
    0.7145   -1.2375    0.0000 C   0  0  0  0  0  0  0  0  0  0  0  0
    0.0000   -1.6500    0.0000 O   0  0  0  0  0  0  0  0  0  0  0  0
    1.4289   -1.6500    0.0000 R#  0  0  0  0  0  0  0  0  0  0  0  0
  1  2  1  0
  2  3  1  0
  2  4  1  0
  4  5  2  0
  5  6  1  0
  6  7  2  0
  7  8  1  0
  8  9  2  0
  4  9  1  0
  7 10  1  0
 10 12  1  0
 10 11  2  0
M  RGP  1  12   2
V   12 *
M  END
>  <m_name>  (594)
4-(dimethylamino)benzoic acid

>  <symbol>  (594)
NMe24Abz

>  <m_abbr>  (594)
NMe24Abz

>  <m_type>  (594)
aa

>  <m_subtype>  (594)
non-natural

>  <m_Rgroups>  (594)
None,OH,None,None

>  <m_RgroupIdx>  (594)
None,11,None,None

>  <m_attachmentPointIdx>  (594)
None,9,None,None

>  <natAnalog>  (594)
X

>  <pdbName>  (594)
NB3

$$$$

     RDKit          2D

 16 16  0  0  0  0  0  0  0  0999 V2000
    1.4289    2.4750    0.0000 O   0  0  0  0  0  0  0  0  0  0  0  0
    0.7145    2.0625    0.0000 N   0  0  0  0  0  0  0  0  0  0  0  0
    0.0000    2.4750    0.0000 O   0  0  0  0  0  0  0  0  0  0  0  0
    0.7145    1.2375    0.0000 C   0  0  0  0  0  0  0  0  0  0  0  0
    1.4289    0.8250    0.0000 C   0  0  0  0  0  0  0  0  0  0  0  0
    1.4289    0.0000    0.0000 C   0  0  0  0  0  0  0  0  0  0  0  0
    0.7145   -0.4125    0.0000 C   0  0  0  0  0  0  0  0  0  0  0  0
    0.0000    0.0000    0.0000 C   0  0  0  0  0  0  0  0  0  0  0  0
   -0.7145   -0.4125    0.0000 C   0  0  0  0  0  0  0  0  0  0  0  0
   -1.4289    0.0000    0.0000 C   0  0  0  0  0  0  0  0  0  0  0  0
   -2.1434   -0.4125    0.0000 N   0  0  0  0  0  0  0  0  0  0  0  0
   -1.4289    0.8250    0.0000 C   0  0  0  0  0  0  0  0  0  0  0  0
   -0.7145    1.2375    0.0000 O   0  0  0  0  0  0  0  0  0  0  0  0
    0.0000    0.8250    0.0000 C   0  0  0  0  0  0  0  0  0  0  0  0
   -2.1434   -1.2375    0.0000 R#  0  0  0  0  0  0  0  0  0  0  0  0
   -2.1434    1.2375    0.0000 R#  0  0  0  0  0  0  0  0  0  0  0  0
  1  2  1  0
  2  3  2  0
  2  4  1  0
  4  5  2  0
  5  6  1  0
  6  7  2  0
  7  8  1  0
  9  8  1  0
  9 10  2  3
 10 11  1  0
 11 15  1  0
 10 12  1  0
 12 16  1  0
 12 13  2  0
  8 14  2  0
  4 14  1  0
M  CHG  2   1  -1   2   1
M  RGP  2  15   1  16   2
V   15 *
V   16 *
M  END
>  <m_name>  (595)
2-amino-3-(3-nitrophenyl)prop-2-enoic acid

>  <symbol>  (595)
Phe_ab_dehydro_3NO2

>  <m_abbr>  (595)
Phe_ab_dehydro_3NO2

>  <m_type>  (595)
aa

>  <m_subtype>  (595)
non-natural

>  <m_Rgroups>  (595)
H,OH,None,None

>  <m_RgroupIdx>  (595)
14,15,None,None

>  <m_attachmentPointIdx>  (595)
10,11,None,None

>  <natAnalog>  (595)
F

>  <pdbName>  (595)
PKI

$$$$

     RDKit          2D

 13 12  0  0  0  0  0  0  0  0999 V2000
    1.0461    1.4289    0.0000 C   0  0  0  0  0  0  0  0  0  0  0  0
    1.7605    1.8414    0.0000 C   0  0  0  0  0  0  0  0  0  0  0  0
    1.7605    2.6664    0.0000 C   0  0  0  0  0  0  0  0  0  0  0  0
    2.4750    1.4289    0.0000 C   0  0  0  0  0  0  0  0  0  0  0  0
    3.1895    1.8414    0.0000 C   0  0  0  0  0  0  0  0  0  0  0  0
    3.1895    2.6664    0.0000 N   0  0  0  0  0  0  0  0  0  0  0  0
    3.9039    1.4289    0.0000 C   0  0  0  0  0  0  0  0  0  0  0  0
    3.9039    0.6039    0.0000 O   0  0  0  0  0  0  0  0  0  0  0  0
    4.6184    1.8414    0.0000 C   0  0  0  0  0  0  0  0  0  0  0  0
    5.3329    1.4289    0.0000 C   0  0  0  0  0  0  0  0  0  0  0  0
    5.3329    0.6039    0.0000 O   0  0  0  0  0  0  0  0  0  0  0  0
    3.9039    3.0789    0.0000 R#  0  0  0  0  0  0  0  0  0  0  0  0
    6.0474    1.8414    0.0000 R#  0  0  0  0  0  0  0  0  0  0  0  0
  1  2  1  0
  2  3  1  0
  2  4  1  0
  5  4  1  6
  5  6  1  0
  6 12  1  0
  5  7  1  0
  7  8  1  6
  7  9  1  0
  9 10  1  0
 10 13  1  0
 10 11  2  0
M  RGP  2  12   1  13   2
V   12 *
V   13 *
M  END
>  <m_name>  (596)
(3S,4S)-4-amino-3-hydroxy-6-methylheptanoic acid

>  <symbol>  (596)
Sta_3S4S

>  <m_abbr>  (596)
Sta_3S4S

>  <m_type>  (596)
aa

>  <m_subtype>  (596)
non-natural

>  <m_Rgroups>  (596)
H,OH,None,None

>  <m_RgroupIdx>  (596)
11,12,None,None

>  <m_attachmentPointIdx>  (596)
5,9,None,None

>  <natAnalog>  (596)
X

>  <pdbName>  (596)
SA4

$$$$

     RDKit          2D

  9  8  0  0  0  0  0  0  0  0999 V2000
    3.9039    0.6039    0.0000 O   0  0  0  0  0  0  0  0  0  0  0  0
    3.9039    1.4289    0.0000 C   0  0  0  0  0  0  0  0  0  0  0  0
    3.1895    1.8414    0.0000 C   0  0  0  0  0  0  0  0  0  0  0  0
    2.4750    1.4289    0.0000 N   0  0  0  0  0  0  0  0  0  0  0  0
    4.6184    1.8414    0.0000 C   0  0  0  0  0  0  0  0  0  0  0  0
    5.3329    1.4289    0.0000 C   0  0  0  0  0  0  0  0  0  0  0  0
    5.3329    0.6039    0.0000 O   0  0  0  0  0  0  0  0  0  0  0  0
    1.7605    1.8414    0.0000 R#  0  0  0  0  0  0  0  0  0  0  0  0
    6.0474    1.8414    0.0000 R#  0  0  0  0  0  0  0  0  0  0  0  0
  2  1  1  6
  2  3  1  0
  3  4  1  0
  4  8  1  0
  2  5  1  0
  5  6  1  0
  6  9  1  0
  6  7  2  0
M  RGP  2   8   1   9   2
V    8 *
V    9 *
M  END
>  <m_name>  (597)
(3S)-4-amino-3-hydroxybutanoic acid

>  <symbol>  (597)
Bux

>  <m_abbr>  (597)
Bux

>  <m_type>  (597)
aa

>  <m_subtype>  (597)
non-natural

>  <m_Rgroups>  (597)
H,OH,None,None

>  <m_RgroupIdx>  (597)
7,8,None,None

>  <m_attachmentPointIdx>  (597)
3,5,None,None

>  <natAnalog>  (597)
X

>  <pdbName>  (597)
BUZ

$$$$

     RDKit          2D

 14 13  0  0  0  0  0  0  0  0999 V2000
    1.6500   -1.4289    0.0000 N   0  0  0  0  0  0  0  0  0  0  0  0
    1.2375   -0.7145    0.0000 C   0  0  0  0  0  0  0  0  0  0  0  0
    1.9520   -0.3020    0.0000 C   0  0  0  0  0  0  0  0  0  0  0  0
    1.9520    0.5230    0.0000 C   0  0  0  0  0  0  0  0  0  0  0  0
    2.6664    0.9355    0.0000 C   0  0  0  0  0  0  0  0  0  0  0  0
    2.6664    1.7605    0.0000 C   0  0  0  0  0  0  0  0  0  0  0  0
    3.3809    2.1730    0.0000 C   0  0  0  0  0  0  0  0  0  0  0  0
    3.3809    2.9980    0.0000 O   0  0  0  0  0  0  0  0  0  0  0  0
    4.0954    1.7605    0.0000 O   0  0  0  0  0  0  0  0  0  0  0  0
    0.5230   -1.1270    0.0000 N   0  0  0  0  0  0  0  0  0  0  0  0
    0.8250    0.0000    0.0000 C   0  0  0  0  0  0  0  0  0  0  0  0
    0.0000    0.0000    0.0000 O   0  0  0  0  0  0  0  0  0  0  0  0
    0.5230   -1.9520    0.0000 R#  0  0  0  0  0  0  0  0  0  0  0  0
    1.2375    0.7145    0.0000 R#  0  0  0  0  0  0  0  0  0  0  0  0
  1  2  1  0
  2  3  1  0
  3  4  1  0
  4  5  1  0
  5  6  1  0
  6  7  1  0
  7  8  1  0
  7  9  2  0
  2 10  1  0
 10 13  1  0
  2 11  1  0
 11 14  1  0
 11 12  2  0
M  RGP  2  13   1  14   2
V   13 *
V   14 *
M  END
>  <m_name>  (598)
Diaminopimelic acid

>  <symbol>  (598)
Dpm

>  <m_abbr>  (598)
Dpm

>  <m_type>  (598)
aa

>  <m_subtype>  (598)
non-natural

>  <m_Rgroups>  (598)
H,OH,None,None

>  <m_RgroupIdx>  (598)
12,13,None,None

>  <m_attachmentPointIdx>  (598)
9,10,None,None

>  <natAnalog>  (598)
X

>  <pdbName>  (598)
D8R

$$$$

     RDKit          2D

 22 23  0  0  0  0  0  0  0  0999 V2000
    9.4280    7.8754    0.0000 N   0  0  0  0  0  0  0  0  0  0  0  0
    9.2565    7.0684    0.0000 C   0  0  0  0  0  0  0  0  0  0  0  0
    9.8695    6.5164    0.0000 N   0  0  0  0  0  0  0  0  0  0  0  0
    9.6980    5.7094    0.0000 C   0  0  0  0  0  0  0  0  0  0  0  0
    8.9134    5.4545    0.0000 N   0  0  0  0  0  0  0  0  0  0  0  0
    8.3003    6.0065    0.0000 C   0  0  0  0  0  0  0  0  0  0  0  0
    7.4798    5.9203    0.0000 N   0  0  0  0  0  0  0  0  0  0  0  0
    7.0673    5.2058    0.0000 C   0  0  0  0  0  0  0  0  0  0  0  0
    6.2423    5.2058    0.0000 C   0  0  0  0  0  0  0  0  0  0  0  0
    5.8298    5.9203    0.0000 O   0  0  0  0  0  0  0  0  0  0  0  0
    5.8298    4.4913    0.0000 N   0  0  0  0  0  0  0  0  0  0  0  0
    5.0048    4.4913    0.0000 C   0  0  0  0  0  0  0  0  0  0  0  0
    4.5923    3.7769    0.0000 C   0  0  0  0  0  0  0  0  0  0  0  0
    3.7673    3.7769    0.0000 N   0  0  0  0  0  0  0  0  0  0  0  0
    6.2423    3.7769    0.0000 C   0  0  0  0  0  0  0  0  0  0  0  0
    7.0673    3.7769    0.0000 C   0  0  0  0  0  0  0  0  0  0  0  0
    7.4798    3.0624    0.0000 O   0  0  0  0  0  0  0  0  0  0  0  0
    7.1443    6.6739    0.0000 C   0  0  0  0  0  0  0  0  0  0  0  0
    7.7574    7.2260    0.0000 N   0  0  0  0  0  0  0  0  0  0  0  0
    8.4718    6.8135    0.0000 C   0  0  0  0  0  0  0  0  0  0  0  0
    3.3548    3.0624    0.0000 R#  0  0  0  0  0  0  0  0  0  0  0  0
    7.4798    4.4913    0.0000 R#  0  0  0  0  0  0  0  0  0  0  0  0
  1  2  1  0
  2  3  2  0
  3  4  1  0
  4  5  2  0
  5  6  1  0
  6  7  1  0
  7  8  1  0
  8  9  1  0
  9 10  2  0
  9 11  1  0
 11 12  1  0
 12 13  1  0
 13 14  1  0
 14 21  1  0
 11 15  1  0
 15 16  1  0
 16 22  1  0
 16 17  2  0
  7 18  1  0
 18 19  2  0
 19 20  1  0
  2 20  1  0
  6 20  2  0
M  RGP  2  21   1  22   2
V   21 *
V   22 *
M  END
>  <m_name>  (599)
PNA Adenine

>  <symbol>  (599)
pnA

>  <m_abbr>  (599)
pnA

>  <m_type>  (599)
aa

>  <m_subtype>  (599)
non-natural

>  <m_Rgroups>  (599)
H,OH,None,None

>  <m_RgroupIdx>  (599)
20,21,None,None

>  <m_attachmentPointIdx>  (599)
13,15,None,None

>  <natAnalog>  (599)
X

>  <pdbName>  (599)
PKK

$$$$

     RDKit          2D

 21 21  0  0  0  0  0  0  0  0999 V2000
    2.8066    6.5704    0.0000 C   0  0  0  0  0  0  0  0  0  0  0  0
    1.9816    6.5704    0.0000 C   0  0  0  0  0  0  0  0  0  0  0  0
    1.5691    5.8559    0.0000 C   0  0  0  0  0  0  0  0  0  0  0  0
    0.7441    5.8559    0.0000 N   0  0  0  0  0  0  0  0  0  0  0  0
    0.3316    5.1414    0.0000 C   0  0  0  0  0  0  0  0  0  0  0  0
   -0.4934    5.1414    0.0000 C   0  0  0  0  0  0  0  0  0  0  0  0
   -0.9059    5.8559    0.0000 O   0  0  0  0  0  0  0  0  0  0  0  0
   -0.9059    4.4270    0.0000 N   0  0  0  0  0  0  0  0  0  0  0  0
   -1.7309    4.4270    0.0000 C   0  0  0  0  0  0  0  0  0  0  0  0
   -2.1434    3.7125    0.0000 C   0  0  0  0  0  0  0  0  0  0  0  0
   -2.9684    3.7125    0.0000 N   0  0  0  0  0  0  0  0  0  0  0  0
   -0.4934    3.7125    0.0000 C   0  0  0  0  0  0  0  0  0  0  0  0
    0.3316    3.7125    0.0000 C   0  0  0  0  0  0  0  0  0  0  0  0
    0.7441    2.9980    0.0000 O   0  0  0  0  0  0  0  0  0  0  0  0
    0.3316    6.5704    0.0000 C   0  0  0  0  0  0  0  0  0  0  0  0
   -0.4934    6.5704    0.0000 O   0  0  0  0  0  0  0  0  0  0  0  0
    0.7441    7.2849    0.0000 N   0  0  0  0  0  0  0  0  0  0  0  0
    1.5691    7.2849    0.0000 C   0  0  0  0  0  0  0  0  0  0  0  0
    1.9816    7.9993    0.0000 O   0  0  0  0  0  0  0  0  0  0  0  0
   -3.3809    2.9980    0.0000 R#  0  0  0  0  0  0  0  0  0  0  0  0
    0.7441    4.4270    0.0000 R#  0  0  0  0  0  0  0  0  0  0  0  0
  1  2  1  0
  2  3  2  0
  3  4  1  0
  4  5  1  0
  5  6  1  0
  6  7  2  0
  6  8  1  0
  8  9  1  0
  9 10  1  0
 10 11  1  0
 11 20  1  0
  8 12  1  0
 12 13  1  0
 13 21  1  0
 13 14  2  0
  4 15  1  0
 15 16  2  0
 15 17  1  0
 17 18  1  0
  2 18  1  0
 18 19  2  0
M  RGP  2  20   1  21   2
V   20 *
V   21 *
M  END
>  <m_name>  (600)
PNA Thymine

>  <symbol>  (600)
pnT

>  <m_abbr>  (600)
pnT

>  <m_type>  (600)
aa

>  <m_subtype>  (600)
non-natural

>  <m_Rgroups>  (600)
H,OH,None,None

>  <m_RgroupIdx>  (600)
19,20,None,None

>  <m_attachmentPointIdx>  (600)
10,12,None,None

>  <natAnalog>  (600)
X

>  <pdbName>  (600)
PKN

$$$$

     RDKit          2D

  8  7  0  0  0  0  0  0  0  0999 V2000
    0.0000   -1.4289    0.0000 Se  0  0  0  0  0  2  0  0  0  0  0  0
    0.8250   -1.4289    0.0000 C   0  0  0  0  0  0  0  0  0  0  0  0
    1.2375   -0.7145    0.0000 C   0  0  0  0  0  0  0  0  0  0  0  0
    2.0625   -0.7145    0.0000 N   0  0  0  0  0  0  0  0  0  0  0  0
    0.8250    0.0000    0.0000 C   0  0  0  0  0  0  0  0  0  0  0  0
    0.0000    0.0000    0.0000 O   0  0  0  0  0  0  0  0  0  0  0  0
    2.4750    0.0000    0.0000 R#  0  0  0  0  0  0  0  0  0  0  0  0
    1.2375    0.7145    0.0000 R#  0  0  0  0  0  0  0  0  0  0  0  0
  1  2  1  0
  3  2  1  1
  3  4  1  0
  4  7  1  0
  3  5  1  0
  5  8  1  0
  5  6  2  0
M  RGP  2   7   1   8   2
V    7 *
V    8 *
M  END
>  <m_name>  (601)
SelenoCysteine

>  <symbol>  (601)
seC

>  <m_abbr>  (601)
seC

>  <m_type>  (601)
aa

>  <m_subtype>  (601)
non-natural

>  <m_Rgroups>  (601)
H,OH,None,None

>  <m_RgroupIdx>  (601)
6,7,None,None

>  <m_attachmentPointIdx>  (601)
3,4,None,None

>  <natAnalog>  (601)
C

>  <pdbName>  (601)
SEX

$$$$

     RDKit          2D

  7  6  0  0  0  0  0  0  0  0999 V2000
    1.9520   -0.3020    0.0000 C   0  0  0  0  0  0  0  0  0  0  0  0
    1.2375   -0.7145    0.0000 C   0  0  0  0  0  0  0  0  0  0  0  0
    0.5230   -1.1270    0.0000 C   0  0  0  0  0  0  0  0  0  0  0  0
    1.6500   -1.4289    0.0000 C   0  0  0  0  0  0  0  0  0  0  0  0
    2.4750   -1.4289    0.0000 O   0  0  0  0  0  0  0  0  0  0  0  0
    0.8250    0.0000    0.0000 N   0  0  0  0  0  0  0  0  0  0  0  0
    0.0000    0.0000    0.0000 R#  0  0  0  0  0  0  0  0  0  0  0  0
  1  2  1  0
  2  3  1  0
  2  4  1  0
  4  5  1  0
  2  6  1  0
  6  7  1  0
M  RGP  1   7   1
V    7 *
M  END
>  <m_name>  (602)
2-amino-2-methylpropan-1-ol

>  <symbol>  (602)
Aib_ol

>  <m_abbr>  (602)
Aib_ol

>  <m_type>  (602)
aa

>  <m_subtype>  (602)
non-natural

>  <m_Rgroups>  (602)
H,None,None,None

>  <m_RgroupIdx>  (602)
6,None,None,None

>  <m_attachmentPointIdx>  (602)
5,None,None,None

>  <natAnalog>  (602)
X

>  <pdbName>  (602)
AJF

$$$$

     RDKit          2D

  8  8  0  0  0  0  0  0  0  0999 V2000
   -0.1467    2.3518    0.0000 O   0  0  0  0  0  0  0  0  0  0  0  0
    0.5678    1.9393    0.0000 C   0  0  0  0  0  0  0  0  0  0  0  0
    0.5678    1.1143    0.0000 C   0  0  0  0  0  0  0  0  0  0  0  0
    1.2352    0.6294    0.0000 C   0  0  0  0  0  0  0  0  0  0  0  0
    0.9803   -0.1553    0.0000 C   0  0  0  0  0  0  0  0  0  0  0  0
    0.1553   -0.1553    0.0000 C   0  0  0  0  0  0  0  0  0  0  0  0
   -0.0997    0.6294    0.0000 N   0  0  0  0  0  0  0  0  0  0  0  0
   -0.8843    0.8843    0.0000 R#  0  0  0  0  0  0  0  0  0  0  0  0
  1  2  1  0
  3  2  1  1
  3  4  1  0
  4  5  1  0
  5  6  1  0
  6  7  1  0
  3  7  1  0
  7  8  1  0
M  RGP  1   8   1
V    8 *
M  END
>  <m_name>  (603)
[(2R)-pyrrolidin-2-yl]methanol

>  <symbol>  (603)
D_Pro_ol

>  <m_abbr>  (603)
D_Pro_ol

>  <m_type>  (603)
aa

>  <m_subtype>  (603)
non-natural

>  <m_Rgroups>  (603)
H,None,None,None

>  <m_RgroupIdx>  (603)
7,None,None,None

>  <m_attachmentPointIdx>  (603)
6,None,None,None

>  <natAnalog>  (603)
P

>  <pdbName>  (603)
D85

$$$$

     RDKit          2D

  9  8  0  0  0  0  0  0  0  0999 V2000
    0.5230    0.5230    0.0000 C   0  0  0  0  0  0  0  0  0  0  0  0
    1.2375    0.1105    0.0000 C   0  0  0  0  0  0  0  0  0  0  0  0
    1.9520    0.5230    0.0000 C   0  0  0  0  0  0  0  0  0  0  0  0
    1.2375   -0.7145    0.0000 C   0  0  0  0  0  0  0  0  0  0  0  0
    1.9520   -1.1270    0.0000 C   0  0  0  0  0  0  0  0  0  0  0  0
    1.9520   -1.9520    0.0000 C   0  0  0  0  0  0  0  0  0  0  0  0
    2.6664   -2.3645    0.0000 O   0  0  0  0  0  0  0  0  0  0  0  0
    2.6664   -0.7145    0.0000 N   0  0  0  0  0  0  0  0  0  0  0  0
    3.3809   -1.1270    0.0000 R#  0  0  0  0  0  0  0  0  0  0  0  0
  1  2  1  0
  2  3  1  0
  2  4  1  0
  5  4  1  6
  5  6  1  0
  6  7  1  0
  5  8  1  0
  8  9  1  0
M  RGP  1   9   1
V    9 *
M  END
>  <m_name>  (604)
(2S)-2-amino-4-methylpentan-1-ol

>  <symbol>  (604)
Leu_ol

>  <m_abbr>  (604)
Leu_ol

>  <m_type>  (604)
aa

>  <m_subtype>  (604)
non-natural

>  <m_Rgroups>  (604)
H,None,None,None

>  <m_RgroupIdx>  (604)
8,None,None,None

>  <m_attachmentPointIdx>  (604)
7,None,None,None

>  <natAnalog>  (604)
L

>  <pdbName>  (604)
LE0

$$$$

     RDKit          2D

 12 12  0  0  0  0  0  0  0  0999 V2000
   -0.7145    3.7125    0.0000 O   0  0  0  0  0  0  0  0  0  0  0  0
    0.0000    3.3000    0.0000 C   0  0  0  0  0  0  0  0  0  0  0  0
    0.0000    2.4750    0.0000 C   0  0  0  0  0  0  0  0  0  0  0  0
    0.7145    2.0625    0.0000 C   0  0  0  0  0  0  0  0  0  0  0  0
    0.7145    1.2375    0.0000 C   0  0  0  0  0  0  0  0  0  0  0  0
    1.4289    0.8250    0.0000 C   0  0  0  0  0  0  0  0  0  0  0  0
    1.4289    0.0000    0.0000 C   0  0  0  0  0  0  0  0  0  0  0  0
    0.7145   -0.4125    0.0000 C   0  0  0  0  0  0  0  0  0  0  0  0
    0.0000    0.0000    0.0000 C   0  0  0  0  0  0  0  0  0  0  0  0
    0.0000    0.8250    0.0000 C   0  0  0  0  0  0  0  0  0  0  0  0
   -0.7145    2.0625    0.0000 N   0  0  0  0  0  0  0  0  0  0  0  0
   -0.7145    1.2375    0.0000 R#  0  0  0  0  0  0  0  0  0  0  0  0
  1  2  1  0
  3  2  1  6
  3  4  1  0
  4  5  1  0
  5  6  2  0
  6  7  1  0
  7  8  2  0
  8  9  1  0
  9 10  2  0
  5 10  1  0
  3 11  1  0
 11 12  1  0
M  RGP  1  12   1
V   12 *
M  END
>  <m_name>  (605)
(2S)-2-amino-3-phenylpropan-1-ol

>  <symbol>  (605)
Phe_ol

>  <m_abbr>  (605)
Phe_ol

>  <m_type>  (605)
aa

>  <m_subtype>  (605)
non-natural

>  <m_Rgroups>  (605)
H,None,None,None

>  <m_RgroupIdx>  (605)
11,None,None,None

>  <m_attachmentPointIdx>  (605)
10,None,None,None

>  <natAnalog>  (605)
F

>  <pdbName>  (605)
PKO

$$$$

     RDKit          2D

  8  7  0  0  0  0  0  0  0  0999 V2000
    2.4750    0.0000    0.0000 C   0  0  0  0  0  0  0  0  0  0  0  0
    2.0625    0.7145    0.0000 C   0  0  0  0  0  0  0  0  0  0  0  0
    2.4750    1.4289    0.0000 O   0  0  0  0  0  0  0  0  0  0  0  0
    1.2375    0.7145    0.0000 C   0  0  0  0  0  0  0  0  0  0  0  0
    0.8250    1.4289    0.0000 C   0  0  0  0  0  0  0  0  0  0  0  0
    0.0000    1.4289    0.0000 O   0  0  0  0  0  0  0  0  0  0  0  0
    0.8250    0.0000    0.0000 N   0  0  0  0  0  0  0  0  0  0  0  0
    0.0000    0.0000    0.0000 R#  0  0  0  0  0  0  0  0  0  0  0  0
  2  1  1  1
  2  3  1  0
  2  4  1  0
  4  5  1  1
  5  6  1  0
  4  7  1  0
  7  8  1  0
M  RGP  1   8   1
V    8 *
M  END
>  <m_name>  (606)
(2S,3S)-2-aminobutane-1,3-diol

>  <symbol>  (606)
Thr_ol

>  <m_abbr>  (606)
Thr_ol

>  <m_type>  (606)
aa

>  <m_subtype>  (606)
non-natural

>  <m_Rgroups>  (606)
H,None,None,None

>  <m_RgroupIdx>  (606)
7,None,None,None

>  <m_attachmentPointIdx>  (606)
6,None,None,None

>  <natAnalog>  (606)
T

>  <pdbName>  (606)
TE0

$$$$

     RDKit          2D

  5  4  0  0  0  0  0  0  0  0999 V2000
    2.0625   -0.7145    0.0000 N   0  0  0  0  0  0  0  0  0  0  0  0
    1.2375   -0.7145    0.0000 C   0  0  0  0  0  0  0  0  0  0  0  0
    0.8250    0.0000    0.0000 C   0  0  0  0  0  0  0  0  0  0  0  0
    0.0000    0.0000    0.0000 O   0  0  0  0  0  0  0  0  0  0  0  0
    2.4750   -1.4289    0.0000 R#  0  0  0  0  0  0  0  0  0  0  0  0
  5  1  1  0
  1  2  1  0
  2  3  1  0
  3  4  2  0
M  RGP  1   5   1
V    5 *
M  END
>  <m_name>  (607)
2-aminoacetaldehyde

>  <symbol>  (607)
Gly_al

>  <m_abbr>  (607)
Gly_al

>  <m_type>  (607)
aa

>  <m_subtype>  (607)
non-natural

>  <m_Rgroups>  (607)
H,None,None,None

>  <m_RgroupIdx>  (607)
4,None,None,None

>  <m_attachmentPointIdx>  (607)
0,None,None,None

>  <natAnalog>  (607)
G

>  <pdbName>  (607)
GCJ

$$$$

     RDKit          2D

  9  8  0  0  0  0  0  0  0  0999 V2000
    0.5230    0.5230    0.0000 C   0  0  0  0  0  0  0  0  0  0  0  0
    1.2375    0.1105    0.0000 C   0  0  0  0  0  0  0  0  0  0  0  0
    1.9520    0.5230    0.0000 C   0  0  0  0  0  0  0  0  0  0  0  0
    1.2375   -0.7145    0.0000 C   0  0  0  0  0  0  0  0  0  0  0  0
    1.9520   -1.1270    0.0000 C   0  0  0  0  0  0  0  0  0  0  0  0
    1.9520   -1.9520    0.0000 N   0  0  0  0  0  0  0  0  0  0  0  0
    2.6664   -0.7145    0.0000 C   0  0  0  0  0  0  0  0  0  0  0  0
    3.3809   -1.1270    0.0000 O   0  0  0  0  0  0  0  0  0  0  0  0
    2.6664   -2.3645    0.0000 R#  0  0  0  0  0  0  0  0  0  0  0  0
  1  2  1  0
  2  3  1  0
  2  4  1  0
  5  4  1  1
  5  6  1  0
  6  9  1  0
  5  7  1  0
  7  8  2  0
M  RGP  1   9   1
V    9 *
M  END
>  <m_name>  (608)
(2S)-2-amino-4-methylpentanal

>  <symbol>  (608)
Leu_al

>  <m_abbr>  (608)
Leu_al

>  <m_type>  (608)
aa

>  <m_subtype>  (608)
non-natural

>  <m_Rgroups>  (608)
H,None,None,None

>  <m_RgroupIdx>  (608)
8,None,None,None

>  <m_attachmentPointIdx>  (608)
5,None,None,None

>  <natAnalog>  (608)
L

>  <pdbName>  (608)
LE5

$$$$

     RDKit          2D

 12 12  0  0  0  0  0  0  0  0999 V2000
    0.0000    3.3000    0.0000 N   0  0  0  0  0  0  0  0  0  0  0  0
    0.0000    2.4750    0.0000 C   0  0  0  0  0  0  0  0  0  0  0  0
    0.7145    2.0625    0.0000 C   0  0  0  0  0  0  0  0  0  0  0  0
    0.7145    1.2375    0.0000 C   0  0  0  0  0  0  0  0  0  0  0  0
    1.4289    0.8250    0.0000 C   0  0  0  0  0  0  0  0  0  0  0  0
    1.4289    0.0000    0.0000 C   0  0  0  0  0  0  0  0  0  0  0  0
    0.7145   -0.4125    0.0000 C   0  0  0  0  0  0  0  0  0  0  0  0
    0.0000    0.0000    0.0000 C   0  0  0  0  0  0  0  0  0  0  0  0
    0.0000    0.8250    0.0000 C   0  0  0  0  0  0  0  0  0  0  0  0
   -0.7145    2.0625    0.0000 C   0  0  0  0  0  0  0  0  0  0  0  0
   -0.7145    1.2375    0.0000 O   0  0  0  0  0  0  0  0  0  0  0  0
   -0.7145    3.7125    0.0000 R#  0  0  0  0  0  0  0  0  0  0  0  0
 12  1  1  0
  2  1  1  0
  2  3  1  1
  3  4  1  0
  4  5  2  0
  5  6  1  0
  6  7  2  0
  7  8  1  0
  8  9  2  0
  4  9  1  0
  2 10  1  0
 10 11  2  0
M  RGP  1  12   1
V   12 *
M  END
>  <m_name>  (609)
(2S)-2-amino-3-phenylpropanal

>  <symbol>  (609)
Phe_al

>  <m_abbr>  (609)
Phe_al

>  <m_type>  (609)
aa

>  <m_subtype>  (609)
non-natural

>  <m_Rgroups>  (609)
H,None,None,None

>  <m_RgroupIdx>  (609)
11,None,None,None

>  <m_attachmentPointIdx>  (609)
0,None,None,None

>  <natAnalog>  (609)
F

>  <pdbName>  (609)
PKQ

$$$$

     RDKit          2D

 18 17  0  0  0  0  0  0  0  0999 V2000
   -1.4629   -2.6369    0.0000 C   0  0  0  0  0  0  0  0  0  0  0  0
   -0.6528   -2.4810    0.0000 C   0  0  0  0  0  0  0  0  0  0  0  0
   -0.1127   -3.1046    0.0000 N   0  0  0  0  0  0  0  0  0  0  0  0
    0.6974   -2.9487    0.0000 C   0  0  0  0  0  0  0  0  0  0  0  0
    1.2375   -3.5724    0.0000 N   0  0  0  0  0  0  0  0  0  0  0  0
    2.0476   -3.4164    0.0000 C   0  0  0  0  0  0  0  0  0  0  0  0
    2.5877   -4.0401    0.0000 C   0  0  0  0  0  0  0  0  0  0  0  0
    3.3979   -3.8842    0.0000 C   0  0  0  0  0  0  0  0  0  0  0  0
    3.9379   -4.5078    0.0000 C   0  0  0  0  0  0  0  0  0  0  0  0
    4.7481   -4.3519    0.0000 C   0  0  0  0  0  0  0  0  0  0  0  0
    5.2882   -4.9755    0.0000 N   0  0  0  0  0  0  0  0  0  0  0  0
    5.0181   -3.5724    0.0000 C   0  0  0  0  0  0  0  0  0  0  0  0
    5.8283   -3.4164    0.0000 O   0  0  0  0  0  0  0  0  0  0  0  0
    0.9675   -2.1692    0.0000 N   0  0  0  0  0  0  0  0  0  0  0  0
    1.7776   -2.0133    0.0000 C   0  0  0  0  0  0  0  0  0  0  0  0
    2.0476   -1.2337    0.0000 C   0  0  0  0  0  0  0  0  0  0  0  0
    6.0983   -4.8196    0.0000 R#  0  0  0  0  0  0  0  0  0  0  0  0
    4.4780   -2.9487    0.0000 R#  0  0  0  0  0  0  0  0  0  0  0  0
  1  2  1  0
  3  2  1  0
  3  4  1  0
  4  5  1  0
  5  6  1  0
  6  7  1  0
  7  8  1  0
  8  9  1  0
 10  9  1  1
 10 11  1  0
 11 17  1  0
 10 12  1  0
 12 18  1  0
 12 13  2  0
  4 14  2  3
 14 15  1  0
 15 16  1  0
M  RGP  2  17   1  18   2
V   17 *
V   18 *
M  END
>  <m_name>  (610)
(2S)-2-amino-6-{[bis(ethylamino)methylidene]amino}hexanoic acid

>  <symbol>  (610)
L_hArg(Et,Et)

>  <m_abbr>  (610)
L_hArg(Et,Et)

>  <m_type>  (610)
aa

>  <m_subtype>  (610)
non-natural

>  <m_Rgroups>  (610)
H,OH,None,None

>  <m_RgroupIdx>  (610)
16,17,None,None

>  <m_attachmentPointIdx>  (610)
10,11,None,None

>  <natAnalog>  (610)
R

>  <pdbName>  (610)
LHI

$$$$

     RDKit          2D

 11 10  0  0  0  0  0  0  0  0999 V2000
    0.8250   -1.4289    0.0000 C   0  0  0  0  0  0  0  0  0  0  0  0
    1.2375   -2.1434    0.0000 S   0  0  0  0  0  0  0  0  0  0  0  0
    0.8250   -2.8579    0.0000 O   0  0  0  0  0  0  0  0  0  0  0  0
    2.0625   -2.1434    0.0000 C   0  0  0  0  0  0  0  0  0  0  0  0
    2.4750   -2.8579    0.0000 C   0  0  0  0  0  0  0  0  0  0  0  0
    3.3000   -2.8579    0.0000 C   0  0  0  0  0  0  0  0  0  0  0  0
    3.7125   -3.5724    0.0000 N   0  0  0  0  0  0  0  0  0  0  0  0
    3.7125   -2.1434    0.0000 C   0  0  0  0  0  0  0  0  0  0  0  0
    4.5375   -2.1434    0.0000 O   0  0  0  0  0  0  0  0  0  0  0  0
    4.5375   -3.5724    0.0000 R#  0  0  0  0  0  0  0  0  0  0  0  0
    3.3000   -1.4289    0.0000 R#  0  0  0  0  0  0  0  0  0  0  0  0
  1  2  1  0
  3  2  1  0
  2  4  1  0
  4  5  1  0
  6  5  1  1
  6  7  1  0
  6  8  1  0
  7 10  1  0
  8 11  1  0
  8  9  2  0
M  CHG  2   2   1   3  -1
M  RGP  2  10   1  11   2
V   10 *
V   11 *
M  END
>  <m_name>  (611)
(2S)-2-amino-4-methanesulfinylbutanoic acid

>  <symbol>  (611)
Met_O

>  <m_abbr>  (611)
Met_O

>  <m_type>  (611)
aa

>  <m_subtype>  (611)
non-natural

>  <m_Rgroups>  (611)
H,OH,None,None

>  <m_RgroupIdx>  (611)
9,10,None,None

>  <m_attachmentPointIdx>  (611)
6,7,None,None

>  <natAnalog>  (611)
M

>  <pdbName>  (611)
MHX

$$$$

     RDKit          2D

 13 13  0  0  0  0  0  0  0  0999 V2000
    0.7145    2.0625    0.0000 O   0  0  0  0  0  0  0  0  0  0  0  0
    0.7145    1.2375    0.0000 C   0  0  0  0  0  0  0  0  0  0  0  0
    1.4289    0.8250    0.0000 C   0  0  0  0  0  0  0  0  0  0  0  0
    1.4289    0.0000    0.0000 C   0  0  0  0  0  0  0  0  0  0  0  0
    0.7145   -0.4125    0.0000 C   0  0  0  0  0  0  0  0  0  0  0  0
    0.0000    0.0000    0.0000 C   0  0  0  0  0  0  0  0  0  0  0  0
    0.0000    0.8250    0.0000 C   0  0  0  0  0  0  0  0  0  0  0  0
    0.7145   -1.2375    0.0000 C   0  0  0  0  0  0  0  0  0  0  0  0
    0.0000   -1.6500    0.0000 N   0  0  0  0  0  0  0  0  0  0  0  0
    1.4289   -1.6500    0.0000 C   0  0  0  0  0  0  0  0  0  0  0  0
    2.1434   -1.2375    0.0000 O   0  0  0  0  0  0  0  0  0  0  0  0
    0.0000   -2.4750    0.0000 R#  0  0  0  0  0  0  0  0  0  0  0  0
    1.4289   -2.4750    0.0000 R#  0  0  0  0  0  0  0  0  0  0  0  0
  1  2  1  0
  2  3  2  0
  3  4  1  0
  4  5  2  0
  5  6  1  0
  6  7  2  0
  2  7  1  0
  8  5  1  0
  8  9  1  1
  9 12  1  0
  8 10  1  0
 10 13  1  0
 10 11  2  0
M  RGP  2  12   1  13   2
V   12 *
V   13 *
M  END
>  <m_name>  (612)
(2S)-2-amino-2-(4-hydroxyphenyl)acetic acid

>  <symbol>  (612)
nTyr

>  <m_abbr>  (612)
nTyr

>  <m_type>  (612)
aa

>  <m_subtype>  (612)
non-natural

>  <m_Rgroups>  (612)
H,OH,None,None

>  <m_RgroupIdx>  (612)
11,12,None,None

>  <m_attachmentPointIdx>  (612)
8,9,None,None

>  <natAnalog>  (612)
Y

>  <pdbName>  (612)
NT0

$$$$

     RDKit          2D

 13 14  0  0  0  0  0  0  0  0999 V2000
    1.1387   -0.0305    0.0000 N   0  0  0  0  0  0  0  0  0  0  0  0
    1.9233   -0.2854    0.0000 C   0  0  0  0  0  0  0  0  0  0  0  0
    2.6378    0.1271    0.0000 C   0  0  0  0  0  0  0  0  0  0  0  0
    3.3523   -0.2854    0.0000 C   0  0  0  0  0  0  0  0  0  0  0  0
    3.3523   -1.1104    0.0000 C   0  0  0  0  0  0  0  0  0  0  0  0
    2.6378   -1.5229    0.0000 C   0  0  0  0  0  0  0  0  0  0  0  0
    1.9233   -1.1104    0.0000 C   0  0  0  0  0  0  0  0  0  0  0  0
    1.1387   -1.3654    0.0000 C   0  0  0  0  0  0  0  0  0  0  0  0
    0.6538   -0.6979    0.0000 C   0  0  0  0  0  0  0  0  0  0  0  0
   -0.1712   -0.6979    0.0000 C   0  0  0  0  0  0  0  0  0  0  0  0
   -0.5837    0.0165    0.0000 O   0  0  0  0  0  0  0  0  0  0  0  0
    0.8838    0.7541    0.0000 R#  0  0  0  0  0  0  0  0  0  0  0  0
   -0.5837   -1.4124    0.0000 R#  0  0  0  0  0  0  0  0  0  0  0  0
 12  1  1  0
  2  1  1  0
  2  3  1  1
  3  4  1  0
  4  5  1  0
  5  6  1  0
  7  6  1  6
  2  7  1  0
  7  8  1  0
  9  8  1  0
  9  1  1  0
  9 10  1  1
 10 13  1  0
 10 11  2  0
M  RGP  2  12   1  13   2
V   12 *
V   13 *
M  END
>  <m_name>  (613)
(2S,3aR,7aS)-octahydro-1H-indole-2-carboxylic acid

>  <symbol>  (613)
Oic_3aR_7aS

>  <m_abbr>  (613)
Oic_3aR_7aS

>  <m_type>  (613)
aa

>  <m_subtype>  (613)
non-natural

>  <m_Rgroups>  (613)
H,OH,None,None

>  <m_RgroupIdx>  (613)
11,12,None,None

>  <m_attachmentPointIdx>  (613)
0,9,None,None

>  <natAnalog>  (613)
X

>  <pdbName>  (613)
OIE

$$$$

     RDKit          2D

 13 14  0  0  0  0  0  0  0  0999 V2000
    1.1387   -0.0305    0.0000 N   0  0  0  0  0  0  0  0  0  0  0  0
    1.9233   -0.2854    0.0000 C   0  0  0  0  0  0  0  0  0  0  0  0
    2.6378    0.1271    0.0000 C   0  0  0  0  0  0  0  0  0  0  0  0
    3.3523   -0.2854    0.0000 C   0  0  0  0  0  0  0  0  0  0  0  0
    3.3523   -1.1104    0.0000 C   0  0  0  0  0  0  0  0  0  0  0  0
    2.6378   -1.5229    0.0000 C   0  0  0  0  0  0  0  0  0  0  0  0
    1.9233   -1.1104    0.0000 C   0  0  0  0  0  0  0  0  0  0  0  0
    1.1387   -1.3654    0.0000 C   0  0  0  0  0  0  0  0  0  0  0  0
    0.6538   -0.6979    0.0000 C   0  0  0  0  0  0  0  0  0  0  0  0
   -0.1712   -0.6979    0.0000 C   0  0  0  0  0  0  0  0  0  0  0  0
   -0.5837    0.0165    0.0000 O   0  0  0  0  0  0  0  0  0  0  0  0
    0.8838    0.7541    0.0000 R#  0  0  0  0  0  0  0  0  0  0  0  0
   -0.5837   -1.4124    0.0000 R#  0  0  0  0  0  0  0  0  0  0  0  0
 12  1  1  0
  1  2  1  0
  2  3  1  0
  3  4  1  0
  4  5  1  0
  5  6  1  0
  6  7  1  0
  2  7  1  0
  7  8  1  0
  9  8  1  0
  9  1  1  0
  9 10  1  1
 10 13  1  0
 10 11  2  0
M  RGP  2  12   1  13   2
V   12 *
V   13 *
M  END
>  <m_name>  (614)
(2S)-octahydro-1H-indole-2-carboxylic acid

>  <symbol>  (614)
Oic_3axi_7axi

>  <m_abbr>  (614)
Oic_3axi_7axi

>  <m_type>  (614)
aa

>  <m_subtype>  (614)
non-natural

>  <m_Rgroups>  (614)
H,OH,None,None

>  <m_RgroupIdx>  (614)
11,12,None,None

>  <m_attachmentPointIdx>  (614)
0,9,None,None

>  <natAnalog>  (614)
X

>  <pdbName>  (614)
OIF

$$$$

     RDKit          2D

 14 14  0  0  0  0  0  0  0  0999 V2000
    0.7145    2.0625    0.0000 F   0  0  0  0  0  0  0  0  0  0  0  0
    0.7145    1.2375    0.0000 C   0  0  0  0  0  0  0  0  0  0  0  0
    1.4289    0.8250    0.0000 C   0  0  0  0  0  0  0  0  0  0  0  0
    1.4289    0.0000    0.0000 C   0  0  0  0  0  0  0  0  0  0  0  0
    0.7145   -0.4125    0.0000 C   0  0  0  0  0  0  0  0  0  0  0  0
    0.0000    0.0000    0.0000 C   0  0  0  0  0  0  0  0  0  0  0  0
    0.0000    0.8250    0.0000 C   0  0  0  0  0  0  0  0  0  0  0  0
   -0.7145    1.2375    0.0000 C   0  0  0  0  0  0  0  0  0  0  0  0
   -1.4289    0.8250    0.0000 C   0  0  0  0  0  0  0  0  0  0  0  0
   -2.1434    1.2375    0.0000 N   0  0  0  0  0  0  0  0  0  0  0  0
   -1.4289    0.0000    0.0000 C   0  0  0  0  0  0  0  0  0  0  0  0
   -0.7145   -0.4125    0.0000 O   0  0  0  0  0  0  0  0  0  0  0  0
   -2.8579    0.8250    0.0000 R#  0  0  0  0  0  0  0  0  0  0  0  0
   -2.1434   -0.4125    0.0000 R#  0  0  0  0  0  0  0  0  0  0  0  0
  1  2  1  0
  2  3  2  0
  3  4  1  0
  4  5  2  0
  5  6  1  0
  6  7  2  0
  2  7  1  0
  7  8  1  0
  9  8  1  1
  9 10  1  0
 10 13  1  0
  9 11  1  0
 11 14  1  0
 11 12  2  0
M  RGP  2  13   1  14   2
V   13 *
V   14 *
M  END
>  <m_name>  (615)
(2S)-2-amino-3-(2-fluorophenyl)propanoic acid

>  <symbol>  (615)
Phe_2F

>  <m_abbr>  (615)
Phe_2F

>  <m_type>  (615)
aa

>  <m_subtype>  (615)
non-natural

>  <m_Rgroups>  (615)
H,OH,None,None

>  <m_RgroupIdx>  (615)
12,13,None,None

>  <m_attachmentPointIdx>  (615)
9,10,None,None

>  <natAnalog>  (615)
F

>  <pdbName>  (615)
PKW

$$$$

     RDKit          2D

 14 14  0  0  0  0  0  0  0  0999 V2000
    0.7145    2.0625    0.0000 F   0  0  0  0  0  0  0  0  0  0  0  0
    0.7145    1.2375    0.0000 C   0  0  0  0  0  0  0  0  0  0  0  0
    1.4289    0.8250    0.0000 C   0  0  0  0  0  0  0  0  0  0  0  0
    1.4289    0.0000    0.0000 C   0  0  0  0  0  0  0  0  0  0  0  0
    0.7145   -0.4125    0.0000 C   0  0  0  0  0  0  0  0  0  0  0  0
    0.0000    0.0000    0.0000 C   0  0  0  0  0  0  0  0  0  0  0  0
   -0.7145   -0.4125    0.0000 C   0  0  0  0  0  0  0  0  0  0  0  0
   -0.7145   -1.2375    0.0000 C   0  0  0  0  0  0  0  0  0  0  0  0
   -1.4289   -1.6500    0.0000 N   0  0  0  0  0  0  0  0  0  0  0  0
    0.0000   -1.6500    0.0000 C   0  0  0  0  0  0  0  0  0  0  0  0
    0.7145   -1.2375    0.0000 O   0  0  0  0  0  0  0  0  0  0  0  0
    0.0000    0.8250    0.0000 C   0  0  0  0  0  0  0  0  0  0  0  0
   -1.4289   -2.4750    0.0000 R#  0  0  0  0  0  0  0  0  0  0  0  0
    0.0000   -2.4750    0.0000 R#  0  0  0  0  0  0  0  0  0  0  0  0
  1  2  1  0
  2  3  2  0
  3  4  1  0
  4  5  2  0
  5  6  1  0
  6  7  1  0
  8  7  1  1
  8  9  1  0
  9 13  1  0
  8 10  1  0
 10 14  1  0
 10 11  2  0
  6 12  2  0
  2 12  1  0
M  RGP  2  13   1  14   2
V   13 *
V   14 *
M  END
>  <m_name>  (616)
(2S)-2-amino-3-(3-fluorophenyl)propanoic acid

>  <symbol>  (616)
Phe_3F

>  <m_abbr>  (616)
Phe_3F

>  <m_type>  (616)
aa

>  <m_subtype>  (616)
non-natural

>  <m_Rgroups>  (616)
H,OH,None,None

>  <m_RgroupIdx>  (616)
12,13,None,None

>  <m_attachmentPointIdx>  (616)
8,9,None,None

>  <natAnalog>  (616)
F

>  <pdbName>  (616)
PKX

$$$$

     RDKit          2D

 14 14  0  0  0  0  0  0  0  0999 V2000
    0.7145    2.0625    0.0000 F   0  0  0  0  0  0  0  0  0  0  0  0
    0.7145    1.2375    0.0000 C   0  0  0  0  0  0  0  0  0  0  0  0
    1.4289    0.8250    0.0000 C   0  0  0  0  0  0  0  0  0  0  0  0
    1.4289    0.0000    0.0000 C   0  0  0  0  0  0  0  0  0  0  0  0
    0.7145   -0.4125    0.0000 C   0  0  0  0  0  0  0  0  0  0  0  0
    0.7145   -1.2375    0.0000 C   0  0  0  0  0  0  0  0  0  0  0  0
    1.4289   -1.6500    0.0000 C   0  0  0  0  0  0  0  0  0  0  0  0
    1.4289   -2.4750    0.0000 N   0  0  0  0  0  0  0  0  0  0  0  0
    2.1434   -1.2375    0.0000 C   0  0  0  0  0  0  0  0  0  0  0  0
    2.1434   -0.4125    0.0000 O   0  0  0  0  0  0  0  0  0  0  0  0
    0.0000    0.0000    0.0000 C   0  0  0  0  0  0  0  0  0  0  0  0
    0.0000    0.8250    0.0000 C   0  0  0  0  0  0  0  0  0  0  0  0
    2.1434   -2.8875    0.0000 R#  0  0  0  0  0  0  0  0  0  0  0  0
    2.8579   -1.6500    0.0000 R#  0  0  0  0  0  0  0  0  0  0  0  0
  1  2  1  0
  2  3  2  0
  3  4  1  0
  4  5  2  0
  5  6  1  0
  7  6  1  1
  7  8  1  0
  8 13  1  0
  7  9  1  0
  9 14  1  0
  9 10  2  0
  5 11  1  0
 11 12  2  0
  2 12  1  0
M  RGP  2  13   1  14   2
V   13 *
V   14 *
M  END
>  <m_name>  (617)
(2S)-2-amino-3-(4-fluorophenyl)propanoic acid

>  <symbol>  (617)
Phe_4F

>  <m_abbr>  (617)
Phe_4F

>  <m_type>  (617)
aa

>  <m_subtype>  (617)
non-natural

>  <m_Rgroups>  (617)
H,OH,None,None

>  <m_RgroupIdx>  (617)
12,13,None,None

>  <m_attachmentPointIdx>  (617)
7,8,None,None

>  <natAnalog>  (617)
F

>  <pdbName>  (617)
PLN

$$$$

     RDKit          2D

 16 16  0  0  0  0  0  0  0  0999 V2000
    0.7145   -1.2375    0.0000 N   0  0  0  0  0  0  0  0  0  0  0  0
    1.4289   -1.6500    0.0000 O   0  0  0  0  0  0  0  0  0  0  0  0
    0.0000   -1.6500    0.0000 O   0  0  0  0  0  0  0  0  0  0  0  0
    0.7145   -0.4125    0.0000 C   0  0  0  0  0  0  0  0  0  0  0  0
    1.4289    0.0000    0.0000 C   0  0  0  0  0  0  0  0  0  0  0  0
    0.0000    0.0000    0.0000 C   0  0  0  0  0  0  0  0  0  0  0  0
    1.4289    0.8250    0.0000 C   0  0  0  0  0  0  0  0  0  0  0  0
    0.0000    0.8250    0.0000 C   0  0  0  0  0  0  0  0  0  0  0  0
    0.7145    1.2375    0.0000 C   0  0  0  0  0  0  0  0  0  0  0  0
    0.7145    2.0625    0.0000 C   0  0  0  0  0  0  0  0  0  0  0  0
    0.0000    2.4750    0.0000 C   0  0  0  0  0  0  0  0  0  0  0  0
    0.0000    3.3000    0.0000 N   0  0  0  0  0  0  0  0  0  0  0  0
   -0.7145    2.0625    0.0000 C   0  0  0  0  0  0  0  0  0  0  0  0
   -1.4289    2.4750    0.0000 O   0  0  0  0  0  0  0  0  0  0  0  0
   -0.7145    3.7125    0.0000 R#  0  0  0  0  0  0  0  0  0  0  0  0
   -0.7145    1.2375    0.0000 R#  0  0  0  0  0  0  0  0  0  0  0  0
  2  1  1  0
  1  3  2  0
  4  1  1  0
  5  4  2  0
  4  6  1  0
  7  5  1  0
  6  8  2  0
  9  7  2  0
  9  8  1  0
 10  9  1  0
 11 10  1  1
 11 12  1  0
 11 13  1  0
 15 12  1  0
 13 16  1  0
 13 14  2  0
M  CHG  2   1   1   2  -1
M  RGP  2  15   1  16   2
V   15 *
V   16 *
M  END
>  <m_name>  (618)
(2S)-2-amino-3-(4-nitrophenyl)propanoic acid

>  <symbol>  (618)
Phe_4NO2

>  <m_abbr>  (618)
Phe_4NO2

>  <m_type>  (618)
aa

>  <m_subtype>  (618)
non-natural

>  <m_Rgroups>  (618)
H,OH,None,None

>  <m_RgroupIdx>  (618)
14,15,None,None

>  <m_attachmentPointIdx>  (618)
11,12,None,None

>  <natAnalog>  (618)
F

>  <pdbName>  (618)
POE

$$$$

     RDKit          2D

 15 15  0  0  0  0  0  0  0  0999 V2000
   -0.1105    2.0625    0.0000 C   0  0  0  0  0  0  0  0  0  0  0  0
    0.7145    2.0625    0.0000 C   0  0  0  0  0  0  0  0  0  0  0  0
    1.5395    2.0625    0.0000 C   0  0  0  0  0  0  0  0  0  0  0  0
    0.7145    2.8875    0.0000 C   0  0  0  0  0  0  0  0  0  0  0  0
    0.0000    3.3000    0.0000 N   0  0  0  0  0  0  0  0  0  0  0  0
    1.4289    3.3000    0.0000 C   0  0  0  0  0  0  0  0  0  0  0  0
    2.1434    2.8875    0.0000 O   0  0  0  0  0  0  0  0  0  0  0  0
    0.7145    1.2375    0.0000 C   0  0  0  0  0  0  0  0  0  0  0  0
    1.4289    0.8250    0.0000 C   0  0  0  0  0  0  0  0  0  0  0  0
    1.4289    0.0000    0.0000 C   0  0  0  0  0  0  0  0  0  0  0  0
    0.7145   -0.4125    0.0000 C   0  0  0  0  0  0  0  0  0  0  0  0
    0.0000    0.0000    0.0000 C   0  0  0  0  0  0  0  0  0  0  0  0
    0.0000    0.8250    0.0000 C   0  0  0  0  0  0  0  0  0  0  0  0
    0.0000    4.1250    0.0000 R#  0  0  0  0  0  0  0  0  0  0  0  0
    1.4289    4.1250    0.0000 R#  0  0  0  0  0  0  0  0  0  0  0  0
  1  2  1  0
  2  3  1  0
  4  2  1  0
  4  5  1  6
  5 14  1  0
  4  6  1  0
  6 15  1  0
  6  7  2  0
  2  8  1  0
  8  9  2  0
  9 10  1  0
 10 11  2  0
 11 12  1  0
 12 13  2  0
  8 13  1  0
M  RGP  2  14   1  15   2
V   14 *
V   15 *
M  END
>  <m_name>  (619)
(2S)-2-amino-3-methyl-3-phenylbutanoic acid

>  <symbol>  (619)
Phe_bbdiMe

>  <m_abbr>  (619)
Phe_bbdiMe

>  <m_type>  (619)
aa

>  <m_subtype>  (619)
non-natural

>  <m_Rgroups>  (619)
H,OH,None,None

>  <m_RgroupIdx>  (619)
13,14,None,None

>  <m_attachmentPointIdx>  (619)
4,5,None,None

>  <natAnalog>  (619)
F

>  <pdbName>  (619)
PPA

$$$$

     RDKit          2D

 17 18  0  0  0  0  0  0  0  0999 V2000
    4.0668    2.3479    0.0000 O   0  0  0  0  0  0  0  0  0  0  0  0
    3.3523    1.9354    0.0000 C   0  0  0  0  0  0  0  0  0  0  0  0
    3.3523    1.1104    0.0000 C   0  0  0  0  0  0  0  0  0  0  0  0
    2.6378    0.6979    0.0000 C   0  0  0  0  0  0  0  0  0  0  0  0
    1.9233    1.1104    0.0000 C   0  0  0  0  0  0  0  0  0  0  0  0
    1.1387    0.8555    0.0000 N   0  0  0  0  0  0  0  0  0  0  0  0
    0.6538    1.5229    0.0000 C   0  0  0  0  0  0  0  0  0  0  0  0
    1.1387    2.1904    0.0000 C   0  0  0  0  0  0  0  0  0  0  0  0
    0.8838    2.9750    0.0000 C   0  0  0  0  0  0  0  0  0  0  0  0
    0.0768    3.1465    0.0000 C   0  0  0  0  0  0  0  0  0  0  0  0
   -0.1781    3.9312    0.0000 N   0  0  0  0  0  0  0  0  0  0  0  0
   -0.4752    2.5334    0.0000 C   0  0  0  0  0  0  0  0  0  0  0  0
   -0.2203    1.7488    0.0000 O   0  0  0  0  0  0  0  0  0  0  0  0
    1.9233    1.9354    0.0000 C   0  0  0  0  0  0  0  0  0  0  0  0
    2.6378    2.3479    0.0000 C   0  0  0  0  0  0  0  0  0  0  0  0
   -0.9851    4.1027    0.0000 R#  0  0  0  0  0  0  0  0  0  0  0  0
   -1.2822    2.7050    0.0000 R#  0  0  0  0  0  0  0  0  0  0  0  0
  1  2  1  0
  2  3  2  0
  3  4  1  0
  4  5  2  0
  5  6  1  0
  6  7  1  0
  7  8  2  0
  8  9  1  0
 10  9  1  1
 10 11  1  0
 11 16  1  0
 10 12  1  0
 12 17  1  0
 12 13  2  0
  8 14  1  0
  5 14  1  0
 14 15  2  0
  2 15  1  0
M  RGP  2  16   1  17   2
V   16 *
V   17 *
M  END
>  <m_name>  (620)
(2S)-2-amino-3-(5-hydroxy-1H-indol-3-yl)propanoic acid

>  <symbol>  (620)
Trp_5OH

>  <m_abbr>  (620)
Trp_5OH

>  <m_type>  (620)
aa

>  <m_subtype>  (620)
non-natural

>  <m_Rgroups>  (620)
H,OH,None,None

>  <m_RgroupIdx>  (620)
15,16,None,None

>  <m_attachmentPointIdx>  (620)
10,11,None,None

>  <natAnalog>  (620)
W

>  <pdbName>  (620)
TE3

$$$$

     RDKit          2D

 18 19  0  0  0  0  0  0  0  0999 V2000
    1.4358   -2.7631    0.0000 C   0  0  0  0  0  0  0  0  0  0  0  0
    0.8838   -2.1500    0.0000 O   0  0  0  0  0  0  0  0  0  0  0  0
    1.1387   -1.3654    0.0000 N   0  0  0  0  0  0  0  0  0  0  0  0
    0.6538   -0.6979    0.0000 C   0  0  0  0  0  0  0  0  0  0  0  0
    1.1387   -0.0305    0.0000 C   0  0  0  0  0  0  0  0  0  0  0  0
    0.8838    0.7541    0.0000 C   0  0  0  0  0  0  0  0  0  0  0  0
    0.0768    0.9256    0.0000 C   0  0  0  0  0  0  0  0  0  0  0  0
   -0.1781    1.7103    0.0000 N   0  0  0  0  0  0  0  0  0  0  0  0
   -0.4752    0.3126    0.0000 C   0  0  0  0  0  0  0  0  0  0  0  0
   -0.2203   -0.4721    0.0000 O   0  0  0  0  0  0  0  0  0  0  0  0
    1.9233   -0.2854    0.0000 C   0  0  0  0  0  0  0  0  0  0  0  0
    2.6378    0.1271    0.0000 C   0  0  0  0  0  0  0  0  0  0  0  0
    3.3523   -0.2854    0.0000 C   0  0  0  0  0  0  0  0  0  0  0  0
    3.3523   -1.1104    0.0000 C   0  0  0  0  0  0  0  0  0  0  0  0
    2.6378   -1.5229    0.0000 C   0  0  0  0  0  0  0  0  0  0  0  0
    1.9233   -1.1104    0.0000 C   0  0  0  0  0  0  0  0  0  0  0  0
   -0.9851    1.8818    0.0000 R#  0  0  0  0  0  0  0  0  0  0  0  0
   -1.2822    0.4841    0.0000 R#  0  0  0  0  0  0  0  0  0  0  0  0
  1  2  1  0
  2  3  1  0
  3  4  1  0
  4  5  2  0
  5  6  1  0
  7  6  1  1
  7  8  1  0
  8 17  1  0
  7  9  1  0
  9 18  1  0
  9 10  2  0
  5 11  1  0
 11 12  2  0
 12 13  1  0
 13 14  2  0
 14 15  1  0
 15 16  2  0
  3 16  1  0
 11 16  1  0
M  RGP  2  17   1  18   2
V   17 *
V   18 *
M  END
>  <m_name>  (621)
(2S)-2-amino-3-(1-methoxy-1H-indol-3-yl)propanoic acid

>  <symbol>  (621)
Trp_Ome

>  <m_abbr>  (621)
Trp_Ome

>  <m_type>  (621)
aa

>  <m_subtype>  (621)
non-natural

>  <m_Rgroups>  (621)
H,OH,None,None

>  <m_RgroupIdx>  (621)
16,17,None,None

>  <m_attachmentPointIdx>  (621)
7,8,None,None

>  <natAnalog>  (621)
W

>  <pdbName>  (621)
TE9

$$$$

     RDKit          2D

 16 16  0  0  0  0  0  0  0  0999 V2000
    0.7145    2.0625    0.0000 O   0  0  0  0  0  0  0  0  0  0  0  0
    0.7145    1.2375    0.0000 C   0  0  0  0  0  0  0  0  0  0  0  0
    1.4289    0.8250    0.0000 C   0  0  0  0  0  0  0  0  0  0  0  0
    2.1434    1.2375    0.0000 I   0  0  0  0  0  0  0  0  0  0  0  0
    1.4289    0.0000    0.0000 C   0  0  0  0  0  0  0  0  0  0  0  0
    0.7145   -0.4125    0.0000 C   0  0  0  0  0  0  0  0  0  0  0  0
    0.7145   -1.2375    0.0000 C   0  0  0  0  0  0  0  0  0  0  0  0
    1.4289   -1.6500    0.0000 C   0  0  0  0  0  0  0  0  0  0  0  0
    1.4289   -2.4750    0.0000 N   0  0  0  0  0  0  0  0  0  0  0  0
    2.1434   -1.2375    0.0000 C   0  0  0  0  0  0  0  0  0  0  0  0
    2.1434   -0.4125    0.0000 O   0  0  0  0  0  0  0  0  0  0  0  0
    0.0000    0.0000    0.0000 C   0  0  0  0  0  0  0  0  0  0  0  0
    0.0000    0.8250    0.0000 C   0  0  0  0  0  0  0  0  0  0  0  0
   -0.7145    1.2375    0.0000 I   0  0  0  0  0  0  0  0  0  0  0  0
    2.1434   -2.8875    0.0000 R#  0  0  0  0  0  0  0  0  0  0  0  0
    2.8579   -1.6500    0.0000 R#  0  0  0  0  0  0  0  0  0  0  0  0
  1  2  1  0
  2  3  2  0
  3  4  1  0
  3  5  1  0
  5  6  2  0
  6  7  1  0
  8  7  1  1
  8  9  1  0
  9 15  1  0
  8 10  1  0
 10 16  1  0
 10 11  2  0
  6 12  1  0
 12 13  2  0
  2 13  1  0
 13 14  1  0
M  RGP  2  15   1  16   2
V   15 *
V   16 *
M  END
>  <m_name>  (622)
(2S)-2-amino-3-(4-hydroxy-3,5-diiodophenyl)propanoic acid

>  <symbol>  (622)
Tyr_35diI

>  <m_abbr>  (622)
Tyr_35diI

>  <m_type>  (622)
aa

>  <m_subtype>  (622)
non-natural

>  <m_Rgroups>  (622)
H,OH,None,None

>  <m_RgroupIdx>  (622)
14,15,None,None

>  <m_attachmentPointIdx>  (622)
8,9,None,None

>  <natAnalog>  (622)
Y

>  <pdbName>  (622)
TFW

$$$$

     RDKit          2D

 15 15  0  0  0  0  0  0  0  0999 V2000
    0.7145    2.0625    0.0000 O   0  0  0  0  0  0  0  0  0  0  0  0
    0.7145    1.2375    0.0000 C   0  0  0  0  0  0  0  0  0  0  0  0
    1.4289    0.8250    0.0000 C   0  0  0  0  0  0  0  0  0  0  0  0
    1.4289    0.0000    0.0000 C   0  0  0  0  0  0  0  0  0  0  0  0
    0.7145   -0.4125    0.0000 C   0  0  0  0  0  0  0  0  0  0  0  0
    0.7145   -1.2375    0.0000 C   0  0  0  0  0  0  0  0  0  0  0  0
    1.4289   -1.6500    0.0000 C   0  0  0  0  0  0  0  0  0  0  0  0
    1.4289   -2.4750    0.0000 N   0  0  0  0  0  0  0  0  0  0  0  0
    2.1434   -1.2375    0.0000 C   0  0  0  0  0  0  0  0  0  0  0  0
    2.1434   -0.4125    0.0000 O   0  0  0  0  0  0  0  0  0  0  0  0
    0.0000    0.0000    0.0000 C   0  0  0  0  0  0  0  0  0  0  0  0
    0.0000    0.8250    0.0000 C   0  0  0  0  0  0  0  0  0  0  0  0
   -0.7145    1.2375    0.0000 O   0  0  0  0  0  0  0  0  0  0  0  0
    2.1434   -2.8875    0.0000 R#  0  0  0  0  0  0  0  0  0  0  0  0
    2.8579   -1.6500    0.0000 R#  0  0  0  0  0  0  0  0  0  0  0  0
  1  2  1  0
  2  3  2  0
  3  4  1  0
  4  5  2  0
  5  6  1  0
  7  6  1  1
  7  8  1  0
  8 14  1  0
  7  9  1  0
  9 15  1  0
  9 10  2  0
  5 11  1  0
 11 12  2  0
  2 12  1  0
 12 13  1  0
M  RGP  2  14   1  15   2
V   14 *
V   15 *
M  END
>  <m_name>  (623)
(2S)-2-amino-3-(3,4-dihydroxyphenyl)propanoic acid

>  <symbol>  (623)
Tyr_3OH

>  <m_abbr>  (623)
Tyr_3OH

>  <m_type>  (623)
aa

>  <m_subtype>  (623)
non-natural

>  <m_Rgroups>  (623)
H,OH,None,None

>  <m_RgroupIdx>  (623)
13,14,None,None

>  <m_attachmentPointIdx>  (623)
7,8,None,None

>  <natAnalog>  (623)
Y

>  <pdbName>  (623)
TF9

$$$$

     RDKit          2D

 15 15  0  0  0  0  0  0  0  0999 V2000
    0.0000    2.4750    0.0000 C   0  0  0  0  0  0  0  0  0  0  0  0
    0.7145    2.0625    0.0000 O   0  0  0  0  0  0  0  0  0  0  0  0
    0.7145    1.2375    0.0000 C   0  0  0  0  0  0  0  0  0  0  0  0
    1.4289    0.8250    0.0000 C   0  0  0  0  0  0  0  0  0  0  0  0
    1.4289    0.0000    0.0000 C   0  0  0  0  0  0  0  0  0  0  0  0
    0.7145   -0.4125    0.0000 C   0  0  0  0  0  0  0  0  0  0  0  0
    0.7145   -1.2375    0.0000 C   0  0  0  0  0  0  0  0  0  0  0  0
    1.4289   -1.6500    0.0000 C   0  0  0  0  0  0  0  0  0  0  0  0
    1.4289   -2.4750    0.0000 N   0  0  0  0  0  0  0  0  0  0  0  0
    2.1434   -1.2375    0.0000 C   0  0  0  0  0  0  0  0  0  0  0  0
    2.1434   -0.4125    0.0000 O   0  0  0  0  0  0  0  0  0  0  0  0
    0.0000    0.0000    0.0000 C   0  0  0  0  0  0  0  0  0  0  0  0
    0.0000    0.8250    0.0000 C   0  0  0  0  0  0  0  0  0  0  0  0
    2.1434   -2.8875    0.0000 R#  0  0  0  0  0  0  0  0  0  0  0  0
    2.8579   -1.6500    0.0000 R#  0  0  0  0  0  0  0  0  0  0  0  0
  1  2  1  0
  2  3  1  0
  3  4  2  0
  4  5  1  0
  5  6  2  0
  6  7  1  0
  8  7  1  1
  8  9  1  0
  9 14  1  0
  8 10  1  0
 10 15  1  0
 10 11  2  0
  6 12  1  0
 12 13  2  0
  3 13  1  0
M  RGP  2  14   1  15   2
V   14 *
V   15 *
M  END
>  <m_name>  (624)
(2S)-2-amino-3-(4-methoxyphenyl)propanoic acid

>  <symbol>  (624)
Tyr_Me

>  <m_abbr>  (624)
Tyr_Me

>  <m_type>  (624)
aa

>  <m_subtype>  (624)
non-natural

>  <m_Rgroups>  (624)
H,OH,None,None

>  <m_RgroupIdx>  (624)
13,14,None,None

>  <m_attachmentPointIdx>  (624)
8,9,None,None

>  <natAnalog>  (624)
Y

>  <pdbName>  (624)
TGI

$$$$

     RDKit          2D

 18 18  0  0  0  0  0  0  0  0999 V2000
   -0.7145    2.8875    0.0000 O   0  0  0  0  0  0  0  0  0  0  0  0
    0.0000    2.4750    0.0000 P   0  0  0  0  0  0  0  0  0  0  0  0
   -0.4125    1.7605    0.0000 O   0  0  0  0  0  0  0  0  0  0  0  0
    0.4125    3.1895    0.0000 O   0  0  0  0  0  0  0  0  0  0  0  0
    0.7145    2.0625    0.0000 O   0  0  0  0  0  0  0  0  0  0  0  0
    0.7145    1.2375    0.0000 C   0  0  0  0  0  0  0  0  0  0  0  0
    1.4289    0.8250    0.0000 C   0  0  0  0  0  0  0  0  0  0  0  0
    1.4289    0.0000    0.0000 C   0  0  0  0  0  0  0  0  0  0  0  0
    0.7145   -0.4125    0.0000 C   0  0  0  0  0  0  0  0  0  0  0  0
    0.7145   -1.2375    0.0000 C   0  0  0  0  0  0  0  0  0  0  0  0
    1.4289   -1.6500    0.0000 C   0  0  0  0  0  0  0  0  0  0  0  0
    1.4289   -2.4750    0.0000 N   0  0  0  0  0  0  0  0  0  0  0  0
    2.1434   -1.2375    0.0000 C   0  0  0  0  0  0  0  0  0  0  0  0
    2.1434   -0.4125    0.0000 O   0  0  0  0  0  0  0  0  0  0  0  0
    0.0000    0.0000    0.0000 C   0  0  0  0  0  0  0  0  0  0  0  0
    0.0000    0.8250    0.0000 C   0  0  0  0  0  0  0  0  0  0  0  0
    2.1434   -2.8875    0.0000 R#  0  0  0  0  0  0  0  0  0  0  0  0
    2.8579   -1.6500    0.0000 R#  0  0  0  0  0  0  0  0  0  0  0  0
  1  2  1  0
  2  3  1  0
  2  4  2  0
  2  5  1  0
  5  6  1  0
  6  7  2  0
  7  8  1  0
  8  9  2  0
  9 10  1  0
 11 10  1  1
 11 12  1  0
 12 17  1  0
 11 13  1  0
 13 18  1  0
 13 14  2  0
  9 15  1  0
 15 16  2  0
  6 16  1  0
M  RGP  2  17   1  18   2
V   17 *
V   18 *
M  END
>  <m_name>  (625)
(2S)-2-amino-3-[4-(phosphonooxy)phenyl]propanoic acid

>  <symbol>  (625)
Tyr_PO3H2

>  <m_abbr>  (625)
Tyr_PO3H2

>  <m_type>  (625)
aa

>  <m_subtype>  (625)
non-natural

>  <m_Rgroups>  (625)
H,OH,None,None

>  <m_RgroupIdx>  (625)
16,17,None,None

>  <m_attachmentPointIdx>  (625)
11,12,None,None

>  <natAnalog>  (625)
Y

>  <pdbName>  (625)
TGO

$$$$

     RDKit          2D

 10 10  0  0  0  0  0  0  0  0999 V2000
    0.5678    1.9393    0.0000 O   0  0  0  0  0  0  0  0  0  0  0  0
    0.5678    1.1143    0.0000 C   0  0  0  0  0  0  0  0  0  0  0  0
    1.2352    0.6294    0.0000 C   0  0  0  0  0  0  0  0  0  0  0  0
    0.9803   -0.1553    0.0000 C   0  0  0  0  0  0  0  0  0  0  0  0
    0.1553   -0.1553    0.0000 N   0  0  0  0  0  0  0  0  0  0  0  0
   -0.0997    0.6294    0.0000 C   0  0  0  0  0  0  0  0  0  0  0  0
    1.4652   -0.8227    0.0000 C   0  0  0  0  0  0  0  0  0  0  0  0
    1.1296   -1.5764    0.0000 O   0  0  0  0  0  0  0  0  0  0  0  0
   -0.3297   -0.8227    0.0000 R#  0  0  0  0  0  0  0  0  0  0  0  0
    2.2857   -0.7365    0.0000 R#  0  0  0  0  0  0  0  0  0  0  0  0
  1  2  1  0
  2  3  1  0
  4  3  1  0
  4  5  1  0
  5  9  1  0
  5  6  1  0
  2  6  1  0
  4  7  1  1
  7 10  1  0
  7  8  2  0
M  RGP  2   9   1  10   2
V    9 *
V   10 *
M  END
>  <m_name>  (626)
(2S)-4-hydroxypyrrolidine-2-carboxylic acid

>  <symbol>  (626)
xiHyp

>  <m_abbr>  (626)
xiHyp

>  <m_type>  (626)
aa

>  <m_subtype>  (626)
non-natural

>  <m_Rgroups>  (626)
H,OH,None,None

>  <m_RgroupIdx>  (626)
8,9,None,None

>  <m_attachmentPointIdx>  (626)
4,6,None,None

>  <natAnalog>  (626)
P

>  <pdbName>  (626)
XIB

$$$$

     RDKit          2D

  9  8  0  0  0  0  0  0  0  0999 V2000
    0.0000   -1.4289    0.0000 C   0  0  0  0  0  0  0  0  0  0  0  0
    0.8250   -1.4289    0.0000 C   0  0  0  0  0  0  0  0  0  0  0  0
    1.2375   -2.1434    0.0000 O   0  0  0  0  0  0  0  0  0  0  0  0
    1.2375   -0.7145    0.0000 C   0  0  0  0  0  0  0  0  0  0  0  0
    2.0625   -0.7145    0.0000 N   0  0  0  0  0  0  0  0  0  0  0  0
    0.8250    0.0000    0.0000 C   0  0  0  0  0  0  0  0  0  0  0  0
    0.0000    0.0000    0.0000 O   0  0  0  0  0  0  0  0  0  0  0  0
    2.4750    0.0000    0.0000 R#  0  0  0  0  0  0  0  0  0  0  0  0
    1.2375    0.7145    0.0000 R#  0  0  0  0  0  0  0  0  0  0  0  0
  1  2  1  0
  2  3  1  0
  4  2  1  0
  4  5  1  1
  5  8  1  0
  4  6  1  0
  6  9  1  0
  6  7  2  0
M  RGP  2   8   1   9   2
V    8 *
V    9 *
M  END
>  <m_name>  (627)
(2S)-2-amino-3-hydroxybutanoic acid

>  <symbol>  (627)
xiThr

>  <m_abbr>  (627)
xiThr

>  <m_type>  (627)
aa

>  <m_subtype>  (627)
non-natural

>  <m_Rgroups>  (627)
H,OH,None,None

>  <m_RgroupIdx>  (627)
7,8,None,None

>  <m_attachmentPointIdx>  (627)
4,5,None,None

>  <natAnalog>  (627)
T

>  <pdbName>  (627)
XIT

$$$$

     RDKit          2D

 12 12  0  0  0  0  0  0  0  0999 V2000
    0.0000    2.4750    0.0000 C   0  0  0  0  0  0  0  0  0  0  0  0
    0.7145    2.0625    0.0000 N   0  0  0  0  0  0  0  0  0  0  0  0
    0.7145    1.2375    0.0000 C   0  0  0  0  0  0  0  0  0  0  0  0
    1.4289    0.8250    0.0000 C   0  0  0  0  0  0  0  0  0  0  0  0
    1.4289    0.0000    0.0000 C   0  0  0  0  0  0  0  0  0  0  0  0
    0.7145   -0.4125    0.0000 C   0  0  0  0  0  0  0  0  0  0  0  0
    0.0000    0.0000    0.0000 C   0  0  0  0  0  0  0  0  0  0  0  0
    0.0000    0.8250    0.0000 C   0  0  0  0  0  0  0  0  0  0  0  0
    0.7145   -1.2375    0.0000 C   0  0  0  0  0  0  0  0  0  0  0  0
    0.0000   -1.6500    0.0000 O   0  0  0  0  0  0  0  0  0  0  0  0
    1.4289    2.4750    0.0000 R#  0  0  0  0  0  0  0  0  0  0  0  0
    1.4289   -1.6500    0.0000 R#  0  0  0  0  0  0  0  0  0  0  0  0
  1  2  1  0
  2 11  1  0
  2  3  1  0
  3  4  2  0
  4  5  1  0
  5  6  2  0
  6  7  1  0
  7  8  2  0
  3  8  1  0
  6  9  1  0
  9 12  1  0
  9 10  2  0
M  RGP  2  11   1  12   2
V   11 *
V   12 *
M  END
>  <m_name>  (628)
4-(methylamino)benzoic acid

>  <symbol>  (628)
NMe4Abz

>  <m_abbr>  (628)
NMe4Abz

>  <m_type>  (628)
aa

>  <m_subtype>  (628)
non-natural

>  <m_Rgroups>  (628)
H,OH,None,None

>  <m_RgroupIdx>  (628)
10,11,None,None

>  <m_attachmentPointIdx>  (628)
1,8,None,None

>  <natAnalog>  (628)
X

>  <pdbName>  (628)
NB6

$$$$

     RDKit          2D

 15 15  0  0  0  0  0  0  0  0999 V2000
    1.8414    1.7605    0.0000 C   0  0  0  0  0  0  0  0  0  0  0  0
    1.4289    2.4750    0.0000 C   0  0  0  0  0  0  0  0  0  0  0  0
    0.7145    2.0625    0.0000 C   0  0  0  0  0  0  0  0  0  0  0  0
    0.7145    1.2375    0.0000 C   0  0  0  0  0  0  0  0  0  0  0  0
    1.4289    0.8250    0.0000 C   0  0  0  0  0  0  0  0  0  0  0  0
    1.4289    0.0000    0.0000 C   0  0  0  0  0  0  0  0  0  0  0  0
    0.7145   -0.4125    0.0000 C   0  0  0  0  0  0  0  0  0  0  0  0
    0.7145   -1.2375    0.0000 O   0  0  0  0  0  0  0  0  0  0  0  0
    0.0000    0.0000    0.0000 C   0  0  0  0  0  0  0  0  0  0  0  0
    0.0000    0.8250    0.0000 C   0  0  0  0  0  0  0  0  0  0  0  0
    1.0164    3.1895    0.0000 N   0  0  0  0  0  0  0  0  0  0  0  0
    2.1434    2.8875    0.0000 C   0  0  0  0  0  0  0  0  0  0  0  0
    2.8579    2.4750    0.0000 O   0  0  0  0  0  0  0  0  0  0  0  0
    0.1914    3.1895    0.0000 R#  0  0  0  0  0  0  0  0  0  0  0  0
    2.1434    3.7125    0.0000 R#  0  0  0  0  0  0  0  0  0  0  0  0
  2  1  1  1
  2  3  1  0
  3  4  1  0
  4  5  2  0
  5  6  1  0
  6  7  2  0
  7  8  1  0
  7  9  1  0
  9 10  2  0
  4 10  1  0
  2 11  1  0
 11 14  1  0
  2 12  1  0
 12 15  1  0
 12 13  2  0
M  RGP  2  14   1  15   2
V   14 *
V   15 *
M  END
>  <m_name>  (629)
(2S)-2-amino-3-(4-hydroxyphenyl)-2-methylpropanoic acid

>  <symbol>  (629)
aMeTyr

>  <m_abbr>  (629)
aMeTyr

>  <m_type>  (629)
aa

>  <m_subtype>  (629)
non-natural

>  <m_Rgroups>  (629)
H,OH,None,None

>  <m_RgroupIdx>  (629)
13,14,None,None

>  <m_attachmentPointIdx>  (629)
10,11,None,None

>  <natAnalog>  (629)
Y

>  <pdbName>  (629)
AJO

$$$$

     RDKit          2D

 15 14  0  0  0  0  0  0  0  0999 V2000
    0.6430   -4.4293    0.0000 C   0  0  0  0  0  0  0  0  0  0  0  0
    1.2375   -5.0013    0.0000 C   0  0  0  0  0  0  0  0  0  0  0  0
    2.0301   -4.7725    0.0000 C   0  0  0  0  0  0  0  0  0  0  0  0
    2.2283   -3.9716    0.0000 O   0  0  0  0  0  0  0  0  0  0  0  0
    2.6246   -5.3445    0.0000 C   0  0  0  0  0  0  0  0  0  0  0  0
    3.4172   -5.1157    0.0000 C   0  0  0  0  0  0  0  0  0  0  0  0
    4.0117   -5.6877    0.0000 C   0  0  0  0  0  0  0  0  0  0  0  0
    4.8044   -5.4589    0.0000 C   0  0  0  0  0  0  0  0  0  0  0  0
    5.3988   -6.0310    0.0000 C   0  0  0  0  0  0  0  0  0  0  0  0
    6.1915   -5.8021    0.0000 C   0  0  0  0  0  0  0  0  0  0  0  0
    6.7859   -6.3742    0.0000 N   0  0  0  0  0  0  0  0  0  0  0  0
    6.3896   -5.0013    0.0000 C   0  0  0  0  0  0  0  0  0  0  0  0
    7.1823   -4.7725    0.0000 O   0  0  0  0  0  0  0  0  0  0  0  0
    7.5786   -6.1454    0.0000 R#  0  0  0  0  0  0  0  0  0  0  0  0
    5.7951   -4.4293    0.0000 R#  0  0  0  0  0  0  0  0  0  0  0  0
  1  2  1  0
  2  3  1  0
  3  4  2  0
  3  5  1  0
  5  6  1  0
  6  7  1  0
  7  8  1  0
  8  9  1  0
 10  9  1  1
 10 11  1  0
 11 14  1  0
 10 12  1  0
 12 15  1  0
 12 13  2  0
M  RGP  2  14   1  15   2
V   14 *
V   15 *
M  END
>  <m_name>  (630)
(2S)-2-amino-8-oxodecanoic acid

>  <symbol>  (630)
Aoda

>  <m_abbr>  (630)
Aoda

>  <m_type>  (630)
aa

>  <m_subtype>  (630)
non-natural

>  <m_Rgroups>  (630)
H,OH,None,None

>  <m_RgroupIdx>  (630)
13,14,None,None

>  <m_attachmentPointIdx>  (630)
10,11,None,None

>  <natAnalog>  (630)
X

>  <pdbName>  (630)
AO0

$$$$

     RDKit          2D

 21 22  0  0  0  0  0  0  0  0999 V2000
    1.4289    0.8250    0.0000 N   0  0  0  0  0  0  0  0  0  0  0  0
    1.4289    0.0000    0.0000 C   0  0  0  0  0  0  0  0  0  0  0  0
    2.1434   -0.4125    0.0000 C   0  0  0  0  0  0  0  0  0  0  0  0
    2.1434   -1.2375    0.0000 C   0  0  0  0  0  0  0  0  0  0  0  0
    2.8579   -1.6500    0.0000 C   0  0  0  0  0  0  0  0  0  0  0  0
    2.8579   -2.4750    0.0000 C   0  0  0  0  0  0  0  0  0  0  0  0
    2.1434   -2.8875    0.0000 C   0  0  0  0  0  0  0  0  0  0  0  0
    1.4289   -2.4750    0.0000 C   0  0  0  0  0  0  0  0  0  0  0  0
    1.4289   -1.6500    0.0000 C   0  0  0  0  0  0  0  0  0  0  0  0
    2.1434   -3.7125    0.0000 C   0  0  0  0  0  0  0  0  0  0  0  0
    2.8579   -4.1250    0.0000 O   0  0  0  0  0  0  0  0  0  0  0  0
    1.4289   -4.1250    0.0000 C   0  0  0  0  0  0  0  0  0  0  0  0
    1.4289   -4.9500    0.0000 C   0  0  0  0  0  0  0  0  0  0  0  0
    0.7145   -5.3625    0.0000 C   0  0  0  0  0  0  0  0  0  0  0  0
    0.0000   -4.9500    0.0000 C   0  0  0  0  0  0  0  0  0  0  0  0
    0.0000   -4.1250    0.0000 C   0  0  0  0  0  0  0  0  0  0  0  0
    0.7145   -3.7125    0.0000 C   0  0  0  0  0  0  0  0  0  0  0  0
    0.7145   -0.4125    0.0000 C   0  0  0  0  0  0  0  0  0  0  0  0
    0.0000    0.0000    0.0000 O   0  0  0  0  0  0  0  0  0  0  0  0
    0.7145    1.2375    0.0000 R#  0  0  0  0  0  0  0  0  0  0  0  0
    0.7145   -1.2375    0.0000 R#  0  0  0  0  0  0  0  0  0  0  0  0
 20  1  1  0
  2  1  1  0
  2  3  1  1
  3  4  1  0
  4  5  2  0
  5  6  1  0
  6  7  2  0
  7  8  1  0
  8  9  2  0
  4  9  1  0
  7 10  1  0
 10 11  2  0
 10 12  1  0
 12 13  2  0
 13 14  1  0
 14 15  2  0
 15 16  1  0
 16 17  2  0
 12 17  1  0
  2 18  1  0
 18 21  1  0
 18 19  2  0
M  RGP  2  20   1  21   2
V   20 *
V   21 *
M  END
>  <m_name>  (631)
(2S)-2-amino-3-(4-benzoylphenyl)propanoic acid

>  <symbol>  (631)
Bpa

>  <m_abbr>  (631)
Bpa

>  <m_type>  (631)
aa

>  <m_subtype>  (631)
non-natural

>  <m_Rgroups>  (631)
H,OH,None,None

>  <m_RgroupIdx>  (631)
19,20,None,None

>  <m_attachmentPointIdx>  (631)
0,17,None,None

>  <natAnalog>  (631)
X

>  <pdbName>  (631)
BBG

$$$$

     RDKit          2D

  9  8  0  0  0  0  0  0  0  0999 V2000
    0.5230    0.5230    0.0000 C   0  0  0  0  0  0  0  0  0  0  0  0
    1.2375    0.1105    0.0000 S   0  0  0  0  0  0  0  0  0  0  0  0
    1.2375   -0.7145    0.0000 C   0  0  0  0  0  0  0  0  0  0  0  0
    1.9520   -1.1270    0.0000 C   0  0  0  0  0  0  0  0  0  0  0  0
    1.9520   -1.9520    0.0000 N   0  0  0  0  0  0  0  0  0  0  0  0
    2.6664   -0.7145    0.0000 C   0  0  0  0  0  0  0  0  0  0  0  0
    3.3809   -1.1270    0.0000 O   0  0  0  0  0  0  0  0  0  0  0  0
    2.6664   -2.3645    0.0000 R#  0  0  0  0  0  0  0  0  0  0  0  0
    2.6664    0.1105    0.0000 R#  0  0  0  0  0  0  0  0  0  0  0  0
  1  2  1  0
  2  3  1  0
  4  3  1  1
  4  5  1  0
  5  8  1  0
  4  6  1  0
  6  9  1  0
  6  7  2  0
M  RGP  2   8   1   9   2
V    8 *
V    9 *
M  END
>  <m_name>  (632)
(2R)-2-amino-3-(methylsulfanyl)propanoic acid

>  <symbol>  (632)
Cys_Me

>  <m_abbr>  (632)
Cys_Me

>  <m_type>  (632)
aa

>  <m_subtype>  (632)
non-natural

>  <m_Rgroups>  (632)
H,OH,None,None

>  <m_RgroupIdx>  (632)
7,8,None,None

>  <m_attachmentPointIdx>  (632)
4,5,None,None

>  <natAnalog>  (632)
C

>  <pdbName>  (632)
CCJ

$$$$

     RDKit          2D

 19 20  0  0  0  0  0  0  0  0999 V2000
    0.7145   -0.4125    0.0000 N   0  0  0  0  0  0  0  0  0  0  0  0
    1.4289    0.0000    0.0000 C   0  0  0  0  0  0  0  0  0  0  0  0
    2.1434   -0.4125    0.0000 C   0  0  0  0  0  0  0  0  0  0  0  0
    2.1434   -1.2375    0.0000 C   0  0  0  0  0  0  0  0  0  0  0  0
    2.8579   -1.6500    0.0000 C   0  0  0  0  0  0  0  0  0  0  0  0
    2.8579   -2.4750    0.0000 C   0  0  0  0  0  0  0  0  0  0  0  0
    2.1434   -2.8875    0.0000 C   0  0  0  0  0  0  0  0  0  0  0  0
    1.4289   -2.4750    0.0000 C   0  0  0  0  0  0  0  0  0  0  0  0
    1.4289   -1.6500    0.0000 C   0  0  0  0  0  0  0  0  0  0  0  0
    2.8579    0.0000    0.0000 C   0  0  0  0  0  0  0  0  0  0  0  0
    2.8579    0.8250    0.0000 C   0  0  0  0  0  0  0  0  0  0  0  0
    3.5724    1.2375    0.0000 C   0  0  0  0  0  0  0  0  0  0  0  0
    4.2868    0.8250    0.0000 C   0  0  0  0  0  0  0  0  0  0  0  0
    4.2868    0.0000    0.0000 C   0  0  0  0  0  0  0  0  0  0  0  0
    3.5724   -0.4125    0.0000 C   0  0  0  0  0  0  0  0  0  0  0  0
    1.4289    0.8250    0.0000 C   0  0  0  0  0  0  0  0  0  0  0  0
    2.1434    1.2375    0.0000 O   0  0  0  0  0  0  0  0  0  0  0  0
    0.0000    0.0000    0.0000 R#  0  0  0  0  0  0  0  0  0  0  0  0
    0.7145    1.2375    0.0000 R#  0  0  0  0  0  0  0  0  0  0  0  0
 18  1  1  0
  2  1  1  6
  2  3  1  0
  3  4  1  0
  4  5  2  0
  5  6  1  0
  6  7  2  0
  7  8  1  0
  8  9  2  0
  4  9  1  0
  3 10  1  0
 10 11  2  0
 11 12  1  0
 12 13  2  0
 13 14  1  0
 14 15  2  0
 10 15  1  0
  2 16  1  0
 16 19  1  0
 16 17  2  0
M  RGP  2  18   1  19   2
V   18 *
V   19 *
M  END
>  <m_name>  (633)
(2S)-2-amino-3,3-diphenylpropanoic acid

>  <symbol>  (633)
Dip

>  <m_abbr>  (633)
Dip

>  <m_type>  (633)
aa

>  <m_subtype>  (633)
non-natural

>  <m_Rgroups>  (633)
H,OH,None,None

>  <m_RgroupIdx>  (633)
17,18,None,None

>  <m_attachmentPointIdx>  (633)
0,15,None,None

>  <natAnalog>  (633)
X

>  <pdbName>  (633)
D9E

$$$$

     RDKit          2D

 14 13  0  0  0  0  0  0  0  0999 V2000
   -0.1127   -3.1046    0.0000 N   0  0  0  0  0  0  0  0  0  0  0  0
    0.6974   -2.9487    0.0000 C   0  0  0  0  0  0  0  0  0  0  0  0
    0.9675   -2.1692    0.0000 N   0  0  0  0  0  0  0  0  0  0  0  0
    1.2375   -3.5724    0.0000 N   0  0  0  0  0  0  0  0  0  0  0  0
    2.0476   -3.4164    0.0000 C   0  0  0  0  0  0  0  0  0  0  0  0
    2.5877   -4.0401    0.0000 C   0  0  0  0  0  0  0  0  0  0  0  0
    3.3979   -3.8842    0.0000 C   0  0  0  0  0  0  0  0  0  0  0  0
    3.9379   -4.5078    0.0000 C   0  0  0  0  0  0  0  0  0  0  0  0
    4.7481   -4.3519    0.0000 C   0  0  0  0  0  0  0  0  0  0  0  0
    5.2882   -4.9755    0.0000 N   0  0  0  0  0  0  0  0  0  0  0  0
    5.0181   -3.5724    0.0000 C   0  0  0  0  0  0  0  0  0  0  0  0
    5.8283   -3.4164    0.0000 O   0  0  0  0  0  0  0  0  0  0  0  0
    6.0983   -4.8196    0.0000 R#  0  0  0  0  0  0  0  0  0  0  0  0
    4.4780   -2.9487    0.0000 R#  0  0  0  0  0  0  0  0  0  0  0  0
  1  2  1  0
  2  3  1  0
  2  4  1  0
  4  5  1  0
  5  6  1  0
  6  7  1  0
  7  8  1  0
  9  8  1  1
  9 10  1  0
 10 13  1  0
  9 11  1  0
 11 14  1  0
 11 12  2  0
M  RGP  2  13   1  14   2
V   13 *
V   14 *
M  END
>  <m_name>  (634)
(2S)-2-amino-6-[(diaminomethyl)amino]hexanoic acid

>  <symbol>  (634)
hArg

>  <m_abbr>  (634)
hArg

>  <m_type>  (634)
aa

>  <m_subtype>  (634)
non-natural

>  <m_Rgroups>  (634)
H,OH,None,None

>  <m_RgroupIdx>  (634)
12,13,None,None

>  <m_attachmentPointIdx>  (634)
9,10,None,None

>  <natAnalog>  (634)
R

>  <pdbName>  (634)
HA4

$$$$

     RDKit          2D

 19 20  0  0  0  0  0  0  0  0999 V2000
    1.3222    0.7634    0.0000 N   0  0  0  0  0  0  0  0  0  0  0  0
    1.3222   -0.0616    0.0000 C   0  0  0  0  0  0  0  0  0  0  0  0
    2.0367   -0.4741    0.0000 C   0  0  0  0  0  0  0  0  0  0  0  0
    2.0367   -1.2991    0.0000 C   0  0  0  0  0  0  0  0  0  0  0  0
    2.7041   -1.7840    0.0000 C   0  0  0  0  0  0  0  0  0  0  0  0
    2.4492   -2.5687    0.0000 N   0  0  0  0  0  0  0  0  0  0  0  0
    2.9341   -3.2361    0.0000 C   0  0  0  0  0  0  0  0  0  0  0  0
    2.5986   -3.9898    0.0000 C   0  0  0  0  0  0  0  0  0  0  0  0
    3.0835   -4.6572    0.0000 C   0  0  0  0  0  0  0  0  0  0  0  0
    2.7479   -5.4109    0.0000 C   0  0  0  0  0  0  0  0  0  0  0  0
    1.9275   -5.4971    0.0000 C   0  0  0  0  0  0  0  0  0  0  0  0
    1.4425   -4.8297    0.0000 C   0  0  0  0  0  0  0  0  0  0  0  0
    1.7781   -4.0760    0.0000 C   0  0  0  0  0  0  0  0  0  0  0  0
    1.6242   -2.5687    0.0000 C   0  0  0  0  0  0  0  0  0  0  0  0
    1.3693   -1.7840    0.0000 N   0  0  0  0  0  0  0  0  0  0  0  0
    0.6078   -0.4741    0.0000 C   0  0  0  0  0  0  0  0  0  0  0  0
   -0.1067   -0.0616    0.0000 O   0  0  0  0  0  0  0  0  0  0  0  0
    0.6078    1.1759    0.0000 R#  0  0  0  0  0  0  0  0  0  0  0  0
    0.6078   -1.2991    0.0000 R#  0  0  0  0  0  0  0  0  0  0  0  0
 18  1  1  0
  2  1  1  0
  2  3  1  1
  3  4  1  0
  4  5  2  0
  5  6  1  0
  6  7  1  0
  7  8  1  0
  8  9  2  0
  9 10  1  0
 10 11  2  0
 11 12  1  0
 12 13  2  0
  8 13  1  0
  6 14  1  0
 14 15  2  0
  4 15  1  0
  2 16  1  0
 16 19  1  0
 16 17  2  0
M  RGP  2  18   1  19   2
V   18 *
V   19 *
M  END
>  <m_name>  (635)
(2S)-2-amino-3-(1-benzyl-1H-imidazol-4-yl)propanoic acid

>  <symbol>  (635)
His_1Bn

>  <m_abbr>  (635)
His_1Bn

>  <m_type>  (635)
aa

>  <m_subtype>  (635)
non-natural

>  <m_Rgroups>  (635)
H,OH,None,None

>  <m_RgroupIdx>  (635)
17,18,None,None

>  <m_attachmentPointIdx>  (635)
0,15,None,None

>  <natAnalog>  (635)
H

>  <pdbName>  (635)
HIJ

$$$$

     RDKit          2D

 13 13  0  0  0  0  0  0  0  0999 V2000
    0.5678    1.9393    0.0000 C   0  0  0  0  0  0  0  0  0  0  0  0
    0.5678    1.1143    0.0000 N   0  0  0  0  0  0  0  0  0  0  0  0
    1.2352    0.6294    0.0000 C   0  0  0  0  0  0  0  0  0  0  0  0
    0.9803   -0.1553    0.0000 N   0  0  0  0  0  0  0  0  0  0  0  0
    0.1553   -0.1553    0.0000 C   0  0  0  0  0  0  0  0  0  0  0  0
   -0.0997    0.6294    0.0000 C   0  0  0  0  0  0  0  0  0  0  0  0
   -0.8843    0.8843    0.0000 C   0  0  0  0  0  0  0  0  0  0  0  0
   -1.4974    0.3323    0.0000 C   0  0  0  0  0  0  0  0  0  0  0  0
   -2.2820    0.5872    0.0000 N   0  0  0  0  0  0  0  0  0  0  0  0
   -1.3259   -0.4747    0.0000 C   0  0  0  0  0  0  0  0  0  0  0  0
   -0.5412   -0.7296    0.0000 O   0  0  0  0  0  0  0  0  0  0  0  0
   -2.8951    0.0352    0.0000 R#  0  0  0  0  0  0  0  0  0  0  0  0
   -1.9390   -1.0267    0.0000 R#  0  0  0  0  0  0  0  0  0  0  0  0
  1  2  1  0
  2  3  1  0
  3  4  2  0
  4  5  1  0
  5  6  2  0
  2  6  1  0
  6  7  1  0
  8  7  1  1
  8  9  1  0
  9 12  1  0
  8 10  1  0
 10 13  1  0
 10 11  2  0
M  RGP  2  12   1  13   2
V   12 *
V   13 *
M  END
>  <m_name>  (636)
(2S)-2-amino-3-(1-methyl-1H-imidazol-5-yl)propanoic acid

>  <symbol>  (636)
His_3Me

>  <m_abbr>  (636)
His_3Me

>  <m_type>  (636)
aa

>  <m_subtype>  (636)
non-natural

>  <m_Rgroups>  (636)
H,OH,None,None

>  <m_RgroupIdx>  (636)
11,12,None,None

>  <m_attachmentPointIdx>  (636)
8,9,None,None

>  <natAnalog>  (636)
H

>  <pdbName>  (636)
HIL

$$$$

     RDKit          2D

 12 11  0  0  0  0  0  0  0  0999 V2000
    0.0000   -1.4289    0.0000 N   0  0  0  0  0  0  0  0  0  0  0  0
    0.8250   -1.4289    0.0000 C   0  0  0  0  0  0  0  0  0  0  0  0
    1.2375   -2.1434    0.0000 C   0  0  0  0  0  0  0  0  0  0  0  0
    0.8250   -2.8579    0.0000 O   0  0  0  0  0  0  0  0  0  0  0  0
    2.0625   -2.1434    0.0000 C   0  0  0  0  0  0  0  0  0  0  0  0
    2.4750   -2.8579    0.0000 C   0  0  0  0  0  0  0  0  0  0  0  0
    3.3000   -2.8579    0.0000 C   0  0  0  0  0  0  0  0  0  0  0  0
    3.7125   -3.5724    0.0000 N   0  0  0  0  0  0  0  0  0  0  0  0
    3.7125   -2.1434    0.0000 C   0  0  0  0  0  0  0  0  0  0  0  0
    4.5375   -2.1434    0.0000 O   0  0  0  0  0  0  0  0  0  0  0  0
    4.5375   -3.5724    0.0000 R#  0  0  0  0  0  0  0  0  0  0  0  0
    3.3000   -1.4289    0.0000 R#  0  0  0  0  0  0  0  0  0  0  0  0
  1  2  1  0
  2  3  1  0
  3  4  1  0
  3  5  1  0
  5  6  1  0
  7  6  1  1
  7  8  1  0
  8 11  1  0
  7  9  1  0
  9 12  1  0
  9 10  2  0
M  RGP  2  11   1  12   2
V   11 *
V   12 *
M  END
>  <m_name>  (637)
(2S)-2,6-diamino-5-hydroxyhexanoic acid

>  <symbol>  (637)
Hyl_5xi

>  <m_abbr>  (637)
Hyl_5xi

>  <m_type>  (637)
aa

>  <m_subtype>  (637)
non-natural

>  <m_Rgroups>  (637)
H,OH,None,None

>  <m_RgroupIdx>  (637)
10,11,None,None

>  <m_attachmentPointIdx>  (637)
7,8,None,None

>  <natAnalog>  (637)
K

>  <pdbName>  (637)
HYL

$$$$

     RDKit          2D

 19 20  0  0  0  0  0  0  0  0999 V2000
    0.0000    0.8250    0.0000 N   0  0  0  0  0  0  0  0  0  0  0  0
    0.0000    0.0000    0.0000 C   0  0  0  0  0  0  0  0  0  0  0  0
    0.7145   -0.4125    0.0000 C   0  0  0  0  0  0  0  0  0  0  0  0
    0.7145   -1.2375    0.0000 C   0  0  0  0  0  0  0  0  0  0  0  0
    1.4289   -1.6500    0.0000 C   0  0  0  0  0  0  0  0  0  0  0  0
    1.4289   -2.4750    0.0000 C   0  0  0  0  0  0  0  0  0  0  0  0
    0.7145   -2.8875    0.0000 C   0  0  0  0  0  0  0  0  0  0  0  0
    0.0000   -2.4750    0.0000 C   0  0  0  0  0  0  0  0  0  0  0  0
    0.0000   -1.6500    0.0000 C   0  0  0  0  0  0  0  0  0  0  0  0
    0.7145   -3.7125    0.0000 C   0  0  0  0  0  0  0  0  0  0  0  0
    1.4289   -4.1250    0.0000 C   0  0  0  0  0  0  0  0  0  0  0  0
    1.4289   -4.9500    0.0000 C   0  0  0  0  0  0  0  0  0  0  0  0
    0.7145   -5.3625    0.0000 C   0  0  0  0  0  0  0  0  0  0  0  0
    0.0000   -4.9500    0.0000 C   0  0  0  0  0  0  0  0  0  0  0  0
    0.0000   -4.1250    0.0000 C   0  0  0  0  0  0  0  0  0  0  0  0
   -0.7145   -0.4125    0.0000 C   0  0  0  0  0  0  0  0  0  0  0  0
   -1.4289    0.0000    0.0000 O   0  0  0  0  0  0  0  0  0  0  0  0
   -0.7145    1.2375    0.0000 R#  0  0  0  0  0  0  0  0  0  0  0  0
   -0.7145   -1.2375    0.0000 R#  0  0  0  0  0  0  0  0  0  0  0  0
 18  1  1  0
  2  1  1  0
  2  3  1  1
  3  4  1  0
  4  5  2  0
  5  6  1  0
  6  7  2  0
  7  8  1  0
  8  9  2  0
  4  9  1  0
  7 10  1  0
 10 11  2  0
 11 12  1  0
 12 13  2  0
 13 14  1  0
 14 15  2  0
 10 15  1  0
  2 16  1  0
 16 19  1  0
 16 17  2  0
M  RGP  2  18   1  19   2
V   18 *
V   19 *
M  END
>  <m_name>  (638)
(2S)-2-amino-3-{[1,1'-biphenyl]-4-yl}propanoic acid

>  <symbol>  (638)
Bip

>  <m_abbr>  (638)
Bip

>  <m_type>  (638)
aa

>  <m_subtype>  (638)
non-natural

>  <m_Rgroups>  (638)
H,OH,None,None

>  <m_RgroupIdx>  (638)
17,18,None,None

>  <m_attachmentPointIdx>  (638)
0,15,None,None

>  <natAnalog>  (638)
X

>  <pdbName>  (638)
BI0

$$$$

     RDKit          2D

  8  7  0  0  0  0  0  0  0  0999 V2000
    2.0625    0.7145    0.0000 C   0  0  0  0  0  0  0  0  0  0  0  0
    1.2375    0.7145    0.0000 C   0  0  0  0  0  0  0  0  0  0  0  0
    0.8250    0.0000    0.0000 C   0  0  0  0  0  0  0  0  0  0  0  0
    0.0000    0.0000    0.0000 N   0  0  0  0  0  0  0  0  0  0  0  0
    1.2375   -0.7145    0.0000 C   0  0  0  0  0  0  0  0  0  0  0  0
    2.0625   -0.7145    0.0000 O   0  0  0  0  0  0  0  0  0  0  0  0
   -0.4125   -0.7145    0.0000 R#  0  0  0  0  0  0  0  0  0  0  0  0
    0.8250   -1.4289    0.0000 R#  0  0  0  0  0  0  0  0  0  0  0  0
  1  2  1  0
  2  3  1  0
  3  4  2  3
  4  7  1  0
  3  5  1  0
  5  8  1  0
  5  6  2  0
M  RGP  2   7   1   8   2
V    7 *
V    8 *
M  END
>  <m_name>  (639)
2-aminobut-2-enoic acid

>  <symbol>  (639)
Abu_23dehydro

>  <m_abbr>  (639)
Abu_23dehydro

>  <m_type>  (639)
aa

>  <m_subtype>  (639)
non-natural

>  <m_Rgroups>  (639)
H,OH,None,None

>  <m_RgroupIdx>  (639)
6,7,None,None

>  <m_attachmentPointIdx>  (639)
3,4,None,None

>  <natAnalog>  (639)
X

>  <pdbName>  (639)
AJS

$$$$

     RDKit          2D

 19 20  0  0  0  0  0  0  0  0999 V2000
    0.7145   -0.4125    0.0000 N   0  0  0  0  0  0  0  0  0  0  0  0
    1.4289    0.0000    0.0000 C   0  0  0  0  0  0  0  0  0  0  0  0
    2.1434   -0.4125    0.0000 C   0  0  0  0  0  0  0  0  0  0  0  0
    2.1434   -1.2375    0.0000 C   0  0  0  0  0  0  0  0  0  0  0  0
    2.8579   -1.6500    0.0000 C   0  0  0  0  0  0  0  0  0  0  0  0
    2.8579   -2.4750    0.0000 C   0  0  0  0  0  0  0  0  0  0  0  0
    2.1434   -2.8875    0.0000 C   0  0  0  0  0  0  0  0  0  0  0  0
    1.4289   -2.4750    0.0000 C   0  0  0  0  0  0  0  0  0  0  0  0
    1.4289   -1.6500    0.0000 C   0  0  0  0  0  0  0  0  0  0  0  0
    2.8579    0.0000    0.0000 C   0  0  0  0  0  0  0  0  0  0  0  0
    2.8579    0.8250    0.0000 C   0  0  0  0  0  0  0  0  0  0  0  0
    3.5724    1.2375    0.0000 C   0  0  0  0  0  0  0  0  0  0  0  0
    4.2868    0.8250    0.0000 C   0  0  0  0  0  0  0  0  0  0  0  0
    4.2868    0.0000    0.0000 C   0  0  0  0  0  0  0  0  0  0  0  0
    3.5724   -0.4125    0.0000 C   0  0  0  0  0  0  0  0  0  0  0  0
    1.4289    0.8250    0.0000 C   0  0  0  0  0  0  0  0  0  0  0  0
    2.1434    1.2375    0.0000 O   0  0  0  0  0  0  0  0  0  0  0  0
    0.0000    0.0000    0.0000 R#  0  0  0  0  0  0  0  0  0  0  0  0
    0.7145    1.2375    0.0000 R#  0  0  0  0  0  0  0  0  0  0  0  0
 18  1  1  0
  2  1  1  1
  2  3  1  0
  3  4  1  0
  4  5  2  0
  5  6  1  0
  6  7  2  0
  7  8  1  0
  8  9  2  0
  4  9  1  0
  3 10  1  0
 10 11  2  0
 11 12  1  0
 12 13  2  0
 13 14  1  0
 14 15  2  0
 10 15  1  0
  2 16  1  0
 16 19  1  0
 16 17  2  0
M  RGP  2  18   1  19   2
V   18 *
V   19 *
M  END
>  <m_name>  (640)
(2R)-2-amino-3,3-diphenylpropanoic acid

>  <symbol>  (640)
D_Dip

>  <m_abbr>  (640)
D_Dip

>  <m_type>  (640)
aa

>  <m_subtype>  (640)
non-natural

>  <m_Rgroups>  (640)
H,OH,None,None

>  <m_RgroupIdx>  (640)
17,18,None,None

>  <m_attachmentPointIdx>  (640)
0,15,None,None

>  <natAnalog>  (640)
X

>  <pdbName>  (640)
D9I

$$$$

     RDKit          2D

  7  6  0  0  0  0  0  0  0  0999 V2000
    1.2375   -0.7145    0.0000 C   0  0  0  0  0  0  0  0  0  0  0  0
    0.8250    0.0000    0.0000 C   0  0  0  0  0  0  0  0  0  0  0  0
    0.0000    0.0000    0.0000 N   0  0  0  0  0  0  0  0  0  0  0  0
    1.2375    0.7145    0.0000 C   0  0  0  0  0  0  0  0  0  0  0  0
    2.0625    0.7145    0.0000 O   0  0  0  0  0  0  0  0  0  0  0  0
   -0.4125   -0.7145    0.0000 R#  0  0  0  0  0  0  0  0  0  0  0  0
    0.8250    1.4289    0.0000 R#  0  0  0  0  0  0  0  0  0  0  0  0
  1  2  1  0
  2  3  2  3
  3  6  1  0
  2  4  1  0
  4  7  1  0
  4  5  2  0
M  RGP  2   6   1   7   2
V    6 *
V    7 *
M  END
>  <m_name>  (641)
2-aminoprop-2-enoic acid

>  <symbol>  (641)
Dha

>  <m_abbr>  (641)
Dha

>  <m_type>  (641)
aa

>  <m_subtype>  (641)
non-natural

>  <m_Rgroups>  (641)
H,OH,None,None

>  <m_RgroupIdx>  (641)
5,6,None,None

>  <m_attachmentPointIdx>  (641)
2,3,None,None

>  <natAnalog>  (641)
A

>  <pdbName>  (641)
D9J

$$$$

     RDKit          2D

 18 17  0  0  0  0  0  0  0  0999 V2000
   -1.4629   -2.6369    0.0000 C   0  0  0  0  0  0  0  0  0  0  0  0
   -0.6528   -2.4810    0.0000 C   0  0  0  0  0  0  0  0  0  0  0  0
   -0.1127   -3.1046    0.0000 N   0  0  0  0  0  0  0  0  0  0  0  0
    0.6974   -2.9487    0.0000 C   0  0  0  0  0  0  0  0  0  0  0  0
    1.2375   -3.5724    0.0000 N   0  0  0  0  0  0  0  0  0  0  0  0
    2.0476   -3.4164    0.0000 C   0  0  0  0  0  0  0  0  0  0  0  0
    2.5877   -4.0401    0.0000 C   0  0  0  0  0  0  0  0  0  0  0  0
    3.3979   -3.8842    0.0000 C   0  0  0  0  0  0  0  0  0  0  0  0
    3.9379   -4.5078    0.0000 C   0  0  0  0  0  0  0  0  0  0  0  0
    4.7481   -4.3519    0.0000 C   0  0  0  0  0  0  0  0  0  0  0  0
    5.2882   -4.9755    0.0000 N   0  0  0  0  0  0  0  0  0  0  0  0
    5.0181   -3.5724    0.0000 C   0  0  0  0  0  0  0  0  0  0  0  0
    5.8283   -3.4164    0.0000 O   0  0  0  0  0  0  0  0  0  0  0  0
    0.9675   -2.1692    0.0000 N   0  0  0  0  0  0  0  0  0  0  0  0
    1.7776   -2.0133    0.0000 C   0  0  0  0  0  0  0  0  0  0  0  0
    2.0476   -1.2337    0.0000 C   0  0  0  0  0  0  0  0  0  0  0  0
    6.0983   -4.8196    0.0000 R#  0  0  0  0  0  0  0  0  0  0  0  0
    4.4780   -2.9487    0.0000 R#  0  0  0  0  0  0  0  0  0  0  0  0
  1  2  1  0
  3  2  1  0
  3  4  1  0
  4  5  1  0
  5  6  1  0
  6  7  1  0
  7  8  1  0
  8  9  1  0
 10  9  1  6
 10 11  1  0
 11 17  1  0
 10 12  1  0
 12 18  1  0
 12 13  2  0
  4 14  2  3
 14 15  1  0
 15 16  1  0
M  RGP  2  17   1  18   2
V   17 *
V   18 *
M  END
>  <m_name>  (642)
(2R)-2-amino-6-{[bis(ethylamino)methylidene]amino}hexanoic acid

>  <symbol>  (642)
D_hArg_Et2

>  <m_abbr>  (642)
D_hArg_Et2

>  <m_type>  (642)
aa

>  <m_subtype>  (642)
non-natural

>  <m_Rgroups>  (642)
H,OH,None,None

>  <m_RgroupIdx>  (642)
16,17,None,None

>  <m_attachmentPointIdx>  (642)
10,11,None,None

>  <natAnalog>  (642)
R

>  <pdbName>  (642)
D9R

$$$$

     RDKit          2D

 11 10  0  0  0  0  0  0  0  0999 V2000
    0.8250   -1.4289    0.0000 C   0  0  0  0  0  0  0  0  0  0  0  0
    1.2375   -2.1434    0.0000 S   0  0  0  0  0  0  0  0  0  0  0  0
    0.8250   -2.8579    0.0000 O   0  0  0  0  0  0  0  0  0  0  0  0
    2.0625   -2.1434    0.0000 C   0  0  0  0  0  0  0  0  0  0  0  0
    2.4750   -2.8579    0.0000 C   0  0  0  0  0  0  0  0  0  0  0  0
    3.3000   -2.8579    0.0000 C   0  0  0  0  0  0  0  0  0  0  0  0
    3.7125   -3.5724    0.0000 N   0  0  0  0  0  0  0  0  0  0  0  0
    3.7125   -2.1434    0.0000 C   0  0  0  0  0  0  0  0  0  0  0  0
    4.5375   -2.1434    0.0000 O   0  0  0  0  0  0  0  0  0  0  0  0
    4.5375   -3.5724    0.0000 R#  0  0  0  0  0  0  0  0  0  0  0  0
    3.3000   -1.4289    0.0000 R#  0  0  0  0  0  0  0  0  0  0  0  0
  2  1  1  1
  3  2  1  0
  2  4  1  0
  4  5  1  0
  6  5  1  6
  6  7  1  0
  6  8  1  0
  7 10  1  0
  8 11  1  0
  8  9  2  0
M  CHG  2   2   1   3  -1
M  RGP  2  10   1  11   2
V   10 *
V   11 *
M  END
>  <m_name>  (643)
(2R)-2-amino-4-[(S)-methanesulfinyl]butanoic acid

>  <symbol>  (643)
D_Met_S_O

>  <m_abbr>  (643)
D_Met_S_O

>  <m_type>  (643)
aa

>  <m_subtype>  (643)
non-natural

>  <m_Rgroups>  (643)
H,OH,None,None

>  <m_RgroupIdx>  (643)
9,10,None,None

>  <m_attachmentPointIdx>  (643)
6,7,None,None

>  <natAnalog>  (643)
M

>  <pdbName>  (643)
D9X

$$$$

     RDKit          2D

 19 20  0  0  0  0  0  0  0  0999 V2000
    1.3222    0.7634    0.0000 N   0  0  0  0  0  0  0  0  0  0  0  0
    1.3222   -0.0616    0.0000 C   0  0  0  0  0  0  0  0  0  0  0  0
    2.0367   -0.4741    0.0000 C   0  0  0  0  0  0  0  0  0  0  0  0
    2.0367   -1.2991    0.0000 C   0  0  0  0  0  0  0  0  0  0  0  0
    2.7041   -1.7840    0.0000 C   0  0  0  0  0  0  0  0  0  0  0  0
    2.4492   -2.5687    0.0000 N   0  0  0  0  0  0  0  0  0  0  0  0
    2.9341   -3.2361    0.0000 C   0  0  0  0  0  0  0  0  0  0  0  0
    2.5986   -3.9898    0.0000 C   0  0  0  0  0  0  0  0  0  0  0  0
    3.0835   -4.6572    0.0000 C   0  0  0  0  0  0  0  0  0  0  0  0
    2.7479   -5.4109    0.0000 C   0  0  0  0  0  0  0  0  0  0  0  0
    1.9275   -5.4971    0.0000 C   0  0  0  0  0  0  0  0  0  0  0  0
    1.4425   -4.8297    0.0000 C   0  0  0  0  0  0  0  0  0  0  0  0
    1.7781   -4.0760    0.0000 C   0  0  0  0  0  0  0  0  0  0  0  0
    1.6242   -2.5687    0.0000 C   0  0  0  0  0  0  0  0  0  0  0  0
    1.3693   -1.7840    0.0000 N   0  0  0  0  0  0  0  0  0  0  0  0
    0.6078   -0.4741    0.0000 C   0  0  0  0  0  0  0  0  0  0  0  0
   -0.1067   -0.0616    0.0000 O   0  0  0  0  0  0  0  0  0  0  0  0
    0.6078    1.1759    0.0000 R#  0  0  0  0  0  0  0  0  0  0  0  0
    0.6078   -1.2991    0.0000 R#  0  0  0  0  0  0  0  0  0  0  0  0
 18  1  1  0
  2  1  1  0
  2  3  1  6
  3  4  1  0
  4  5  2  0
  5  6  1  0
  6  7  1  0
  7  8  1  0
  8  9  2  0
  9 10  1  0
 10 11  2  0
 11 12  1  0
 12 13  2  0
  8 13  1  0
  6 14  1  0
 14 15  2  0
  4 15  1  0
  2 16  1  0
 16 19  1  0
 16 17  2  0
M  RGP  2  18   1  19   2
V   18 *
V   19 *
M  END
>  <m_name>  (644)
(2R)-2-amino-3-(1-benzyl-1H-imidazol-4-yl)propanoic acid

>  <symbol>  (644)
D_His_1Bn

>  <m_abbr>  (644)
D_His_1Bn

>  <m_type>  (644)
aa

>  <m_subtype>  (644)
non-natural

>  <m_Rgroups>  (644)
H,OH,None,None

>  <m_RgroupIdx>  (644)
17,18,None,None

>  <m_attachmentPointIdx>  (644)
0,15,None,None

>  <natAnalog>  (644)
H

>  <pdbName>  (644)
AJT

$$$$

     RDKit          2D

 13 13  0  0  0  0  0  0  0  0999 V2000
    0.7145    2.0625    0.0000 O   0  0  0  0  0  0  0  0  0  0  0  0
    0.7145    1.2375    0.0000 C   0  0  0  0  0  0  0  0  0  0  0  0
    1.4289    0.8250    0.0000 C   0  0  0  0  0  0  0  0  0  0  0  0
    1.4289    0.0000    0.0000 C   0  0  0  0  0  0  0  0  0  0  0  0
    0.7145   -0.4125    0.0000 C   0  0  0  0  0  0  0  0  0  0  0  0
    0.0000    0.0000    0.0000 C   0  0  0  0  0  0  0  0  0  0  0  0
    0.0000    0.8250    0.0000 C   0  0  0  0  0  0  0  0  0  0  0  0
    0.7145   -1.2375    0.0000 C   0  0  0  0  0  0  0  0  0  0  0  0
    0.0000   -1.6500    0.0000 N   0  0  0  0  0  0  0  0  0  0  0  0
    1.4289   -1.6500    0.0000 C   0  0  0  0  0  0  0  0  0  0  0  0
    2.1434   -1.2375    0.0000 O   0  0  0  0  0  0  0  0  0  0  0  0
    0.0000   -2.4750    0.0000 R#  0  0  0  0  0  0  0  0  0  0  0  0
    1.4289   -2.4750    0.0000 R#  0  0  0  0  0  0  0  0  0  0  0  0
  1  2  1  0
  2  3  2  0
  3  4  1  0
  4  5  2  0
  5  6  1  0
  6  7  2  0
  2  7  1  0
  8  5  1  0
  8  9  1  6
  9 12  1  0
  8 10  1  0
 10 13  1  0
 10 11  2  0
M  RGP  2  12   1  13   2
V   12 *
V   13 *
M  END
>  <m_name>  (645)
(2R)-2-amino-2-(4-hydroxyphenyl)acetic acid

>  <symbol>  (645)
D_nTyr

>  <m_abbr>  (645)
D_nTyr

>  <m_type>  (645)
aa

>  <m_subtype>  (645)
non-natural

>  <m_Rgroups>  (645)
H,OH,None,None

>  <m_RgroupIdx>  (645)
11,12,None,None

>  <m_attachmentPointIdx>  (645)
8,9,None,None

>  <natAnalog>  (645)
Y

>  <pdbName>  (645)
AJW

$$$$

     RDKit          2D

 17 17  0  0  0  0  0  0  0  0999 V2000
    0.0000    3.3000    0.0000 N   0  0  0  0  0  0  0  0  0  0  0  0
    0.0000    2.4750    0.0000 C   0  0  0  0  0  0  0  0  0  0  0  0
   -0.7145    2.0625    0.0000 O   0  0  0  0  0  0  0  0  0  0  0  0
    0.7145    2.0625    0.0000 N   0  0  0  0  0  0  0  0  0  0  0  0
    0.7145    1.2375    0.0000 C   0  0  0  0  0  0  0  0  0  0  0  0
    1.4289    0.8250    0.0000 C   0  0  0  0  0  0  0  0  0  0  0  0
    1.4289    0.0000    0.0000 C   0  0  0  0  0  0  0  0  0  0  0  0
    0.7145   -0.4125    0.0000 C   0  0  0  0  0  0  0  0  0  0  0  0
    0.7145   -1.2375    0.0000 C   0  0  0  0  0  0  0  0  0  0  0  0
    1.4289   -1.6500    0.0000 C   0  0  0  0  0  0  0  0  0  0  0  0
    1.4289   -2.4750    0.0000 N   0  0  0  0  0  0  0  0  0  0  0  0
    2.1434   -1.2375    0.0000 C   0  0  0  0  0  0  0  0  0  0  0  0
    2.1434   -0.4125    0.0000 O   0  0  0  0  0  0  0  0  0  0  0  0
    0.0000    0.0000    0.0000 C   0  0  0  0  0  0  0  0  0  0  0  0
    0.0000    0.8250    0.0000 C   0  0  0  0  0  0  0  0  0  0  0  0
    2.1434   -2.8875    0.0000 R#  0  0  0  0  0  0  0  0  0  0  0  0
    2.8579   -1.6500    0.0000 R#  0  0  0  0  0  0  0  0  0  0  0  0
  1  2  1  0
  2  3  2  0
  2  4  1  0
  4  5  1  0
  5  6  2  0
  6  7  1  0
  7  8  2  0
  8  9  1  0
 10  9  1  6
 10 11  1  0
 11 16  1  0
 10 12  1  0
 12 17  1  0
 12 13  2  0
  8 14  1  0
 14 15  2  0
  5 15  1  0
M  RGP  2  16   1  17   2
V   16 *
V   17 *
M  END
>  <m_name>  (646)
(2R)-2-amino-3-[4-(carbamoylamino)phenyl]propanoic acid

>  <symbol>  (646)
D_Phe_4ureido

>  <m_abbr>  (646)
D_Phe_4ureido

>  <m_type>  (646)
aa

>  <m_subtype>  (646)
non-natural

>  <m_Rgroups>  (646)
H,OH,None,None

>  <m_RgroupIdx>  (646)
15,16,None,None

>  <m_attachmentPointIdx>  (646)
10,11,None,None

>  <natAnalog>  (646)
F

>  <pdbName>  (646)
AJ0

$$$$

     RDKit          2D

 12 12  0  0  0  0  0  0  0  0999 V2000
    1.4617    2.2807    0.0000 O   0  0  0  0  0  0  0  0  0  0  0  0
    0.7479    1.8672    0.0000 C   0  0  0  0  0  0  0  0  0  0  0  0
    2.1768    1.8692    0.0000 C   0  0  0  0  0  0  0  0  0  0  0  0
    0.9625    1.0707    0.0000 C   0  0  0  0  0  0  0  0  0  0  0  0
    1.9644    1.0721    0.0000 C   0  0  0  0  0  0  0  0  0  0  0  0
    0.9637    0.2457    0.0000 O   0  0  0  0  0  0  0  0  0  0  0  0
    1.9656    0.2471    0.0000 O   0  0  0  0  0  0  0  0  0  0  0  0
    0.5994    2.7216    0.0000 C   0  0  0  0  0  0  0  0  0  0  0  0
    2.1756    2.9004    0.0000 R#  0  0  0  0  0  0  0  0  0  0  0  0
    0.1279    3.0752    0.0000 O   0  0  0  0  0  0  0  0  0  0  0  0
   -0.6971    3.2298    0.0000 R#  0  0  0  0  0  0  0  0  0  0  0  0
    1.6650   -0.3083    0.0000 R#  0  0  0  0  0  0  0  0  0  0  0  0
  1  2  1  0
  1  3  1  0
  2  4  1  0
  2  8  1  1
  3  5  1  0
  3  9  1  1
  4  5  1  0
  4  6  1  6
  5  7  1  6
  6 12  1  0
  8 10  1  0
 10 11  1  0
M  RGP  3   9   3  11   1  12   2
V    9 *
V   11 *
V   12 *
M  END
>  <symbol>  (647)
r

>  <m_abbr>  (647)
r

>  <m_type>  (647)
rna

>  <m_subtype>  (647)
natural

>  <m_RgroupIdx>  (647)
10,11,8

>  <m_Rgroups>  (647)
H,H,OH

$$$$

     RDKit          2D

  5  4  0  0  0  0  0  0  0  0999 V2000
    0.1179    0.7366    0.0000 P   0  0  0  0  0  0  0  0  0  0  0  0
   -0.7071    0.7366    0.0000 R#  0  0  0  0  0  0  0  0  0  0  0  0
    0.1179    1.5616    0.0000 O   0  0  0  0  0  0  0  0  0  0  0  0
    0.9429    0.7366    0.0000 R#  0  0  0  0  0  0  0  0  0  0  0  0
    0.1179   -0.0884    0.0000 O   0  0  0  0  0  0  0  0  0  0  0  0
  1  2  1  0
  1  3  2  0
  1  4  1  0
  1  5  1  0
M  RGP  2   2   1   4   2
V    2 *
V    4 *
M  END
>  <symbol>  (648)
p

>  <m_abbr>  (648)
p

>  <m_type>  (648)
rna

>  <m_subtype>  (648)
natural

>  <m_RgroupIdx>  (648)
1,3

>  <m_Rgroups>  (648)
OH,OH

$$$$

     RDKit          2D

 12 13  0  0  0  0  0  0  0  0999 V2000
   -1.7509   -3.8489    0.0000 C   0  0  0  0  0  0  0  0  0  0  0  0
   -1.0364   -4.2614    0.0000 C   0  0  0  0  0  0  0  0  0  0  0  0
   -1.0364   -5.0864    0.0000 C   0  0  0  0  0  0  0  0  0  0  0  0
   -1.7509   -5.4989    0.0000 N   0  0  0  0  0  0  0  0  0  0  0  0
   -2.4654   -5.0864    0.0000 C   0  0  0  0  0  0  0  0  0  0  0  0
   -2.4654   -4.2614    0.0000 N   0  0  0  0  0  0  0  0  0  0  0  0
   -0.3220   -5.4989    0.0000 N   0  0  0  0  0  0  0  0  0  0  0  0
    0.3925   -5.0864    0.0000 C   0  0  0  0  0  0  0  0  0  0  0  0
    0.3925   -4.2614    0.0000 N   0  0  0  0  0  0  0  0  0  0  0  0
   -1.7509   -3.0239    0.0000 O   0  0  0  0  0  0  0  0  0  0  0  0
   -3.1798   -5.4989    0.0000 N   0  0  0  0  0  0  0  0  0  0  0  0
   -0.3220   -6.3239    0.0000 R#  0  0  0  0  0  0  0  0  0  0  0  0
  1 10  2  0
  1  6  1  0
  1  2  1  0
  9  2  1  0
  2  3  2  0
  7  3  1  0
  3  4  1  0
  4  5  2  0
  5  6  1  0
  5 11  1  0
  7  8  1  0
  7 12  1  0
  8  9  2  0
M  RGP  1  12   1
V   12 *
M  END
>  <symbol>  (649)
G

>  <m_abbr>  (649)
G

>  <m_type>  (649)
rna

>  <m_subtype>  (649)
natural

>  <m_RgroupIdx>  (649)
11

>  <m_Rgroups>  (649)
H

$$$$

     RDKit          2D

 11 12  0  0  0  0  0  0  0  0999 V2000
   -4.0674   -0.7795    0.0000 C   0  0  0  0  0  0  0  0  0  0  0  0
   -3.3529   -1.1920    0.0000 C   0  0  0  0  0  0  0  0  0  0  0  0
   -3.3529   -2.0170    0.0000 C   0  0  0  0  0  0  0  0  0  0  0  0
   -4.0674   -2.4295    0.0000 N   0  0  0  0  0  0  0  0  0  0  0  0
   -4.7818   -2.0170    0.0000 C   0  0  0  0  0  0  0  0  0  0  0  0
   -4.7818   -1.1920    0.0000 N   0  0  0  0  0  0  0  0  0  0  0  0
   -2.6384   -2.4295    0.0000 N   0  0  0  0  0  0  0  0  0  0  0  0
   -1.9240   -2.0170    0.0000 C   0  0  0  0  0  0  0  0  0  0  0  0
   -1.9240   -1.1920    0.0000 N   0  0  0  0  0  0  0  0  0  0  0  0
   -4.0674    0.0455    0.0000 N   0  0  0  0  0  0  0  0  0  0  0  0
   -2.6384   -3.2545    0.0000 R#  0  0  0  0  0  0  0  0  0  0  0  0
  1 10  1  0
  1  6  2  0
  1  2  1  0
  9  2  1  0
  2  3  2  0
  7  3  1  0
  3  4  1  0
  4  5  2  0
  5  6  1  0
  7  8  1  0
  7 11  1  0
  8  9  2  0
M  RGP  1  11   1
V   11 *
M  END
>  <symbol>  (650)
A

>  <m_abbr>  (650)
A

>  <m_type>  (650)
rna

>  <m_subtype>  (650)
natural

>  <m_RgroupIdx>  (650)
10

>  <m_Rgroups>  (650)
H

$$$$

     RDKit          2D

  9  9  0  0  0  0  0  0  0  0999 V2000
   -1.3611   -7.5896    0.0000 C   0  0  0  0  0  0  0  0  0  0  0  0
   -0.6466   -8.0021    0.0000 C   0  0  0  0  0  0  0  0  0  0  0  0
   -0.6466   -8.8271    0.0000 C   0  0  0  0  0  0  0  0  0  0  0  0
   -1.3611   -9.2396    0.0000 N   0  0  0  0  0  0  0  0  0  0  0  0
   -2.0755   -8.8271    0.0000 C   0  0  0  0  0  0  0  0  0  0  0  0
   -2.0755   -8.0021    0.0000 N   0  0  0  0  0  0  0  0  0  0  0  0
   -1.3611   -6.7646    0.0000 N   0  0  0  0  0  0  0  0  0  0  0  0
   -2.7900   -9.2396    0.0000 O   0  0  0  0  0  0  0  0  0  0  0  0
   -1.3611  -10.0646    0.0000 R#  0  0  0  0  0  0  0  0  0  0  0  0
  1  2  1  0
  1  6  2  0
  1  7  1  0
  2  3  2  0
  3  4  1  0
  4  5  1  0
  4  9  1  0
  5  6  1  0
  5  8  2  0
M  RGP  1   9   1
V    9 *
M  END
>  <symbol>  (651)
C

>  <m_abbr>  (651)
C

>  <m_type>  (651)
rna

>  <m_subtype>  (651)
natural

>  <m_RgroupIdx>  (651)
8

>  <m_Rgroups>  (651)
H

$$$$

     RDKit          2D

  9  9  0  0  0  0  0  0  0  0999 V2000
   -1.2138  -11.7383    0.0000 C   0  0  0  0  0  0  0  0  0  0  0  0
   -0.4993  -12.1508    0.0000 C   0  0  0  0  0  0  0  0  0  0  0  0
   -0.4993  -12.9758    0.0000 C   0  0  0  0  0  0  0  0  0  0  0  0
   -1.2138  -13.3884    0.0000 N   0  0  0  0  0  0  0  0  0  0  0  0
   -1.9283  -12.9758    0.0000 C   0  0  0  0  0  0  0  0  0  0  0  0
   -1.9283  -12.1508    0.0000 N   0  0  0  0  0  0  0  0  0  0  0  0
   -1.2138  -10.9133    0.0000 O   0  0  0  0  0  0  0  0  0  0  0  0
   -2.6427  -13.3883    0.0000 O   0  0  0  0  0  0  0  0  0  0  0  0
   -1.2138  -14.2134    0.0000 R#  0  0  0  0  0  0  0  0  0  0  0  0
  1  7  2  0
  1  6  1  0
  1  2  1  0
  2  3  2  0
  3  4  1  0
  4  5  1  0
  4  9  1  0
  5  8  2  0
  5  6  1  0
M  RGP  1   9   1
V    9 *
M  END
>  <symbol>  (652)
U

>  <m_abbr>  (652)
U

>  <m_type>  (652)
rna

>  <m_subtype>  (652)
natural

>  <m_RgroupIdx>  (652)
8

>  <m_Rgroups>  (652)
H

$$$$

     RDKit          2D

 10 10  0  0  0  0  0  0  0  0999 V2000
    5.8512   -2.0140    0.0000 C   0  0  0  0  0  0  0  0  0  0  0  0
    6.5686   -2.4215    0.0000 C   0  0  0  0  0  0  0  0  0  0  0  0
    6.5744   -3.2465    0.0000 C   0  0  0  0  0  0  0  0  0  0  0  0
    5.8628   -3.6641    0.0000 N   0  0  0  0  0  0  0  0  0  0  0  0
    5.1454   -3.2565    0.0000 C   0  0  0  0  0  0  0  0  0  0  0  0
    5.1396   -2.4315    0.0000 N   0  0  0  0  0  0  0  0  0  0  0  0
    5.8455   -1.1891    0.0000 O   0  0  0  0  0  0  0  0  0  0  0  0
    4.4339   -3.6740    0.0000 O   0  0  0  0  0  0  0  0  0  0  0  0
    5.8686   -4.4891    0.0000 R#  0  0  0  0  0  0  0  0  0  0  0  0
    7.3655   -2.2080    0.0000 C   0  0  0  0  0  0  0  0  0  0  0  0
  1  7  2  0
  1  6  1  0
  1  2  1  0
  2  3  2  0
  3  4  1  0
  4  5  1  0
  4  9  1  0
  5  8  2  0
  5  6  1  0
  2 10  1  0
M  RGP  1   9   1
V    9 *
M  END
>  <symbol>  (653)
T

>  <m_abbr>  (653)
T

>  <m_type>  (653)
rna

>  <m_subtype>  (653)
natural

>  <m_RgroupIdx>  (653)
8

>  <m_Rgroups>  (653)
H

$$$$

     RDKit          2D

 12 12  0  0  0  0  0  0  0  0999 V2000
    1.4617    2.2807    0.0000 O   0  0  0  0  0  0  0  0  0  0  0  0
    0.7479    1.8672    0.0000 C   0  0  0  0  0  0  0  0  0  0  0  0
    2.1768    1.8692    0.0000 C   0  0  0  0  0  0  0  0  0  0  0  0
    0.9625    1.0707    0.0000 C   0  0  0  0  0  0  0  0  0  0  0  0
    1.9644    1.0721    0.0000 C   0  0  0  0  0  0  0  0  0  0  0  0
    0.9637    0.2457    0.0000 O   0  0  0  0  0  0  0  0  0  0  0  0
    1.9656    0.2471    0.0000 O   0  0  0  0  0  0  0  0  0  0  0  0
    0.5994    2.7216    0.0000 C   0  0  0  0  0  0  0  0  0  0  0  0
    2.1756    2.9004    0.0000 R#  0  0  0  0  0  0  0  0  0  0  0  0
    0.1279    3.0752    0.0000 O   0  0  0  0  0  0  0  0  0  0  0  0
   -0.6971    3.2298    0.0000 R#  0  0  0  0  0  0  0  0  0  0  0  0
    1.6650   -0.3083    0.0000 R#  0  0  0  0  0  0  0  0  0  0  0  0
  1  2  1  0
  1  3  1  0
  2  4  1  0
  2  8  1  1
  3  5  1  0
  3  9  1  1
  4  5  1  0
  4  6  1  6
  5  7  1  6
  6 12  1  0
  8 10  1  0
 10 11  1  0
M  RGP  3   9   3  11   1  12   2
V    9 *
V   11 *
V   12 *
M  END
>  <symbol>  (654)
R

>  <m_abbr>  (654)
R

>  <m_type>  (654)
rna

>  <m_subtype>  (654)
natural

>  <m_RgroupIdx>  (654)
10,11,8

>  <m_Rgroups>  (654)
H,H,OH

$$$$

     RDKit          2D

  5  4  0  0  0  0  0  0  0  0999 V2000
    0.1179    0.7366    0.0000 P   0  0  0  0  0  0  0  0  0  0  0  0
   -0.7071    0.7366    0.0000 R#  0  0  0  0  0  0  0  0  0  0  0  0
    0.1179    1.5616    0.0000 O   0  0  0  0  0  0  0  0  0  0  0  0
    0.9429    0.7366    0.0000 R#  0  0  0  0  0  0  0  0  0  0  0  0
    0.1179   -0.0884    0.0000 O   0  0  0  0  0  0  0  0  0  0  0  0
  1  2  1  0
  1  3  2  0
  1  4  1  0
  1  5  1  0
M  RGP  2   2   1   4   2
V    2 *
V    4 *
M  END
>  <symbol>  (655)
P

>  <m_abbr>  (655)
P

>  <m_type>  (655)
rna

>  <m_subtype>  (655)
natural

>  <m_RgroupIdx>  (655)
1,3

>  <m_Rgroups>  (655)
OH,OH

$$$$

     RDKit          2D

 11 11  0  0  0  0  0  0  0  0999 V2000
    5.2762    3.8090    0.0000 N   0  0  0  0  0  0  0  0  0  0  0  0
    5.2762    2.2867    0.0000 C   0  0  0  0  0  0  0  0  0  0  0  0
    3.9586    1.5230    0.0000 N   0  0  0  0  0  0  0  0  0  0  0  0
    2.6385    2.2867    0.0000 C   0  0  0  0  0  0  0  0  0  0  0  0
    2.6379    3.8090    0.0000 C   0  0  0  0  0  0  0  0  0  0  0  0
    3.9586    4.5700    0.0000 C   0  0  0  0  0  0  0  0  0  0  0  0
    3.9586    6.0930    0.0000 O   0  0  0  0  0  0  0  0  0  0  0  0
    6.5952    1.5252    0.0000 O   0  0  0  0  0  0  0  0  0  0  0  0
    1.3189    4.5705    0.0000 C   0  0  0  0  0  0  0  0  0  0  0  0
    0.0000    5.3320    0.0000 C   0  0  0  0  0  0  0  0  0  0  0  0
    3.9586    0.0000    0.0000 R#  0  0  0  0  0  0  0  0  0  0  0  0
  1  2  1  0
  2  3  1  0
  3  4  1  0
  4  5  2  0
  5  6  1  0
  1  6  1  0
  6  7  2  0
  2  8  2  0
  5  9  1  0
  9 10  3  0
  3 11  1  0
A   11
R1
M  END
>  <symbol>  (656)
ey5U

>  <m_abbr>  (656)
ey5U

>  <m_type>  (656)
rna

>  <m_subtype>  (656)
natural

>  <m_RgroupIdx>  (656)
10

>  <m_Rgroups>  (656)
H

$$$$

     RDKit          2D

 10 10  0  0  0  0  0  0  0  0999 V2000
    3.8990    3.7500    0.0000 N   0  0  0  0  0  0  0  0  0  0  0  0
    3.8990    2.2500    0.0000 C   0  0  0  0  0  0  0  0  0  0  0  0
    2.6040    1.5000    0.0000 N   0  0  0  0  0  0  0  0  0  0  0  0
    1.2990    2.2500    0.0000 C   0  0  0  0  0  0  0  0  0  0  0  0
    1.2990    3.7500    0.0000 C   0  0  0  0  0  0  0  0  0  0  0  0
    2.6040    4.5000    0.0000 C   0  0  0  0  0  0  0  0  0  0  0  0
    2.6040    6.0000    0.0000 O   0  0  0  0  0  0  0  0  0  0  0  0
    2.6040    0.0000    0.0000 R#  0  0  0  0  0  0  0  0  0  0  0  0
    5.1981    1.5000    0.0000 O   0  0  0  0  0  0  0  0  0  0  0  0
    0.0000    4.5000    0.0000 F   0  0  0  0  0  0  0  0  0  0  0  0
  1  2  1  0
  2  3  1  0
  3  4  1  0
  4  5  2  0
  5  6  1  0
  1  6  1  0
  6  7  2  0
  3  8  1  0
  2  9  2  0
  5 10  1  0
A    8
R1
M  END
>  <symbol>  (657)
fl5U

>  <m_abbr>  (657)
fl5U

>  <m_type>  (657)
rna

>  <m_subtype>  (657)
natural

>  <m_RgroupIdx>  (657)
7

>  <m_Rgroups>  (657)
H

$$$$

     RDKit          2D

 10 10  0  0  0  0  0  0  0  0999 V2000
    3.8990    3.7500    0.0000 N   0  0  0  0  0  0  0  0  0  0  0  0
    3.8990    2.2500    0.0000 C   0  0  0  0  0  0  0  0  0  0  0  0
    2.6040    1.5000    0.0000 N   0  0  0  0  0  0  0  0  0  0  0  0
    1.2990    2.2500    0.0000 C   0  0  0  0  0  0  0  0  0  0  0  0
    1.2990    3.7500    0.0000 C   0  0  0  0  0  0  0  0  0  0  0  0
    2.6040    4.5000    0.0000 C   0  0  0  0  0  0  0  0  0  0  0  0
    2.6040    6.0000    0.0000 O   0  0  0  0  0  0  0  0  0  0  0  0
    2.6040    0.0000    0.0000 R#  0  0  0  0  0  0  0  0  0  0  0  0
    5.1981    1.5000    0.0000 O   0  0  0  0  0  0  0  0  0  0  0  0
    0.0000    4.5000    0.0000 I   0  0  0  0  0  0  0  0  0  0  0  0
  1  2  1  0
  2  3  1  0
  3  4  1  0
  4  5  2  0
  5  6  1  0
  1  6  1  0
  6  7  2  0
  3  8  1  0
  2  9  2  0
  5 10  1  0
A    8
R1
M  END
>  <symbol>  (658)
io5U

>  <m_abbr>  (658)
io5U

>  <m_type>  (658)
rna

>  <m_subtype>  (658)
natural

>  <m_RgroupIdx>  (658)
7

>  <m_Rgroups>  (658)
H

$$$$

     RDKit          2D

 10 10  0  0  0  0  0  0  0  0999 V2000
    3.8990    3.7500    0.0000 N   0  0  0  0  0  0  0  0  0  0  0  0
    3.8990    2.2500    0.0000 C   0  0  0  0  0  0  0  0  0  0  0  0
    2.6040    1.5000    0.0000 N   0  0  0  0  0  0  0  0  0  0  0  0
    1.2990    2.2500    0.0000 C   0  0  0  0  0  0  0  0  0  0  0  0
    1.2990    3.7500    0.0000 C   0  0  0  0  0  0  0  0  0  0  0  0
    2.6040    4.5000    0.0000 C   0  0  0  0  0  0  0  0  0  0  0  0
    2.6040    6.0000    0.0000 N   0  0  0  0  0  0  0  0  0  0  0  0
    2.6040    0.0000    0.0000 R#  0  0  0  0  0  0  0  0  0  0  0  0
    5.1980    1.5000    0.0000 O   0  0  0  0  0  0  0  0  0  0  0  0
    0.0000    4.5000    0.0000 C   0  0  0  0  0  0  0  0  0  0  0  0
  1  2  1  0
  2  3  1  0
  3  4  1  0
  4  5  2  0
  5  6  1  0
  1  6  2  0
  6  7  1  0
  3  8  1  0
  2  9  2  0
  5 10  1  0
A    8
R1
M  END
>  <symbol>  (659)
m5C

>  <m_abbr>  (659)
m5C

>  <m_type>  (659)
rna

>  <m_subtype>  (659)
natural

>  <m_RgroupIdx>  (659)
7

>  <m_Rgroups>  (659)
H

$$$$
5-tris-propynyl-uracil
     RDKit          2D

 19 19  0  0  0  0  0  0  0  0999 V2000
    3.6373    8.8564    0.0000 C   0  0  0  0  0  0  0  0  0  0  0  0
    2.3383    8.1064    0.0000 C   0  0  0  0  0  0  0  0  0  0  0  0
    1.0393    8.8564    0.0000 C   0  0  0  0  0  0  0  0  0  0  0  0
    1.0393   10.3564    0.0000 N   0  0  0  0  0  0  0  0  0  0  0  0
    2.3383   11.1064    0.0000 C   0  0  0  0  0  0  0  0  0  0  0  0
    3.6373   10.3564    0.0000 N   0  0  0  0  0  0  0  0  0  0  0  0
    4.6766    8.2564    0.0000 O   0  0  0  0  0  0  0  0  0  0  0  0
    2.3383   12.3064    0.0000 O   0  0  0  0  0  0  0  0  0  0  0  0
    0.0000   10.9564    0.0000 R#  0  0  0  0  0  0  0  0  0  0  0  0
    2.3383    6.6056    0.0000 C   0  0  0  0  0  0  0  0  0  0  0  0
    2.3383    5.1047    0.0000 C   0  0  0  0  0  0  0  0  0  0  0  0
    2.3383    3.6039    0.0000 C   0  0  0  0  0  0  0  0  0  0  0  0
    3.6376    2.8527    0.0000 N   0  0  0  0  0  0  0  0  0  0  0  0
    3.6376    1.3519    0.0000 C   0  0  0  0  0  0  0  0  0  0  0  0
    4.9391    3.6000    0.0000 C   0  0  0  0  0  0  0  0  0  0  0  0
    4.9369    0.6006    0.0000 C   0  0  0  0  0  0  0  0  0  0  0  0
    6.2376    2.8474    0.0000 C   0  0  0  0  0  0  0  0  0  0  0  0
    5.9757    0.0000    0.0000 C   0  0  0  0  0  0  0  0  0  0  0  0
    7.2758    2.2455    0.0000 C   0  0  0  0  0  0  0  0  0  0  0  0
  1  7  2  0
  1  6  1  0
  1  2  1  0
  2  3  2  0
  3  4  1  0
  4  5  1  0
  4  9  1  0
  5  8  2  0
  5  6  1  0
  2 10  1  0
 10 11  3  0
 11 12  1  0
 12 13  1  0
 13 14  1  0
 13 15  1  0
 14 16  1  0
 15 17  1  0
 16 18  3  0
 17 19  3  0
A    9
R1
M  END
>  <symbol>  (660)
tp5U

>  <m_abbr>  (660)
tp5U

>  <m_type>  (660)
rna

>  <m_subtype>  (660)
natural

>  <m_RgroupIdx>  (660)
8

>  <m_Rgroups>  (660)
H

$$$$

     RDKit          2D

 11 12  0  0  0  0  0  0  0  0999 V2000
    3.6619    4.2034    0.0000 C   0  0  0  0  0  0  0  0  0  0  0  0
    2.3429    3.4420    0.0000 C   0  0  0  0  0  0  0  0  0  0  0  0
    2.3428    1.9190    0.0000 C   0  0  0  0  0  0  0  0  0  0  0  0
    3.6617    1.1574    0.0000 N   0  0  0  0  0  0  0  0  0  0  0  0
    4.9807    1.9187    0.0000 C   0  0  0  0  0  0  0  0  0  0  0  0
    4.9808    3.4417    0.0000 N   0  0  0  0  0  0  0  0  0  0  0  0
    0.8950    1.4485    0.0000 N   0  0  0  0  0  0  0  0  0  0  0  0
    0.0000    2.6807    0.0000 C   0  0  0  0  0  0  0  0  0  0  0  0
    0.8953    3.9128    0.0000 N   0  0  0  0  0  0  0  0  0  0  0  0
    3.6620    5.7264    0.0000 O   0  0  0  0  0  0  0  0  0  0  0  0
    0.4244    0.0000    0.0000 R#  0  0  0  0  0  0  0  0  0  0  0  0
  1 10  2  0
  1  6  1  0
  1  2  1  0
  9  2  1  0
  2  3  2  0
  7  3  1  0
  3  4  1  0
  4  5  2  0
  5  6  1  0
  7  8  1  0
  7 11  1  0
  8  9  2  0
A   11
R1
M  END
>  <symbol>  (661)
Hyp

>  <m_abbr>  (661)
Hyp

>  <m_type>  (661)
rna

>  <m_subtype>  (661)
natural

>  <m_RgroupIdx>  (661)
10

>  <m_Rgroups>  (661)
H

$$$$
N-benzyl-adenine
     RDKit          2D

 18 20  0  0  0  0  0  0  0  0999 V2000
    4.8861    2.9932    0.0000 C   0  0  0  0  0  0  0  0  0  0  0  0
    3.5871    2.2432    0.0000 C   0  0  0  0  0  0  0  0  0  0  0  0
    2.2881    2.9932    0.0000 C   0  0  0  0  0  0  0  0  0  0  0  0
    2.2881    4.4932    0.0000 N   0  0  0  0  0  0  0  0  0  0  0  0
    3.5871    5.2432    0.0000 C   0  0  0  0  0  0  0  0  0  0  0  0
    4.8861    4.4932    0.0000 N   0  0  0  0  0  0  0  0  0  0  0  0
    1.1738    1.9902    0.0000 N   0  0  0  0  0  0  0  0  0  0  0  0
    1.7839    0.6199    0.0000 C   0  0  0  0  0  0  0  0  0  0  0  0
    3.2757    0.7767    0.0000 N   0  0  0  0  0  0  0  0  0  0  0  0
    6.1874    2.2455    0.0000 N   0  0  0  0  0  0  0  0  0  0  0  0
    0.0000    2.2398    0.0000 R#  0  0  0  0  0  0  0  0  0  0  0  0
    7.4861    2.9977    0.0000 C   0  0  0  0  0  0  0  0  0  0  0  0
    8.7874    2.2500    0.0000 C   0  0  0  0  0  0  0  0  0  0  0  0
   11.3856    0.7500    0.0000 C   0  0  0  0  0  0  0  0  0  0  0  0
   11.3856    2.2500    0.0000 C   0  0  0  0  0  0  0  0  0  0  0  0
   10.0865    3.0000    0.0000 C   0  0  0  0  0  0  0  0  0  0  0  0
    8.7875    0.7499    0.0000 C   0  0  0  0  0  0  0  0  0  0  0  0
   10.0866    0.0000    0.0000 C   0  0  0  0  0  0  0  0  0  0  0  0
  1 10  1  0
  1  6  1  0
  1  2  2  0
  9  2  1  0
  2  3  1  0
  7  3  1  0
  3  4  2  0
  4  5  1  0
  5  6  2  0
  7  8  1  0
  7 11  1  0
  8  9  2  0
 10 12  1  0
 12 13  1  0
 16 13  2  0
 13 17  1  0
 14 15  2  0
 15 16  1  0
 17 18  2  0
 14 18  1  0
A   11
R1
M  END
>  <symbol>  (662)
bn6A

>  <m_abbr>  (662)
bn6A

>  <m_type>  (662)
rna

>  <m_subtype>  (662)
natural

>  <m_RgroupIdx>  (662)
10

>  <m_Rgroups>  (662)
H

$$$$
5-cyclopropyl-4-dimethylamino-cytosine
     RDKit          2D

 14 15  0  0  0  0  0  0  0  0999 V2000
    3.6373    1.9531    0.0000 C   0  0  0  0  0  0  0  0  0  0  0  0
    3.6373    3.4531    0.0000 C   0  0  0  0  0  0  0  0  0  0  0  0
    2.3383    4.2031    0.0000 C   0  0  0  0  0  0  0  0  0  0  0  0
    1.0393    3.4531    0.0000 N   0  0  0  0  0  0  0  0  0  0  0  0
    1.0393    1.9531    0.0000 C   0  0  0  0  0  0  0  0  0  0  0  0
    2.3383    1.2031    0.0000 N   0  0  0  0  0  0  0  0  0  0  0  0
    4.9356    1.2000    0.0000 N   0  0  0  0  0  0  0  0  0  0  0  0
    0.0000    1.3531    0.0000 O   0  0  0  0  0  0  0  0  0  0  0  0
    0.0000    4.0531    0.0000 R#  0  0  0  0  0  0  0  0  0  0  0  0
    4.9370    4.2035    0.0000 C   0  0  0  0  0  0  0  0  0  0  0  0
    6.3579    4.1601    0.0000 C   0  0  0  0  0  0  0  0  0  0  0  0
    5.6059    5.4579    0.0000 C   0  0  0  0  0  0  0  0  0  0  0  0
    4.9339    0.0000    0.0000 C   0  0  0  0  0  0  0  0  0  0  0  0
    5.9758    1.7982    0.0000 C   0  0  0  0  0  0  0  0  0  0  0  0
  1  2  1  0
  1  6  2  0
  1  7  1  0
  2  3  2  0
  3  4  1  0
  4  5  1  0
  4  9  1  0
  5  6  1  0
  5  8  2  0
  2 10  1  0
 10 11  1  0
 10 12  1  0
 12 11  1  0
  7 13  1  0
  7 14  1  0
A    9
R1
M  END
>  <symbol>  (663)
cp5m42C

>  <m_abbr>  (663)
cp5m42C

>  <m_type>  (663)
rna

>  <m_subtype>  (663)
natural

>  <m_RgroupIdx>  (663)
8

>  <m_Rgroups>  (663)
H

$$$$

     RDKit          2D

 20 23  0  0  0  0  0  0  0  0999 V2000
    1.1318    1.3189    0.0000 N   0  0  0  0  0  0  0  0  0  0  0  0
    0.3703    0.0000    0.0000 R#  0  0  0  0  0  0  0  0  0  0  0  0
    2.6380    1.5448    0.0000 C   0  0  0  0  0  0  0  0  0  0  0  0
    1.3190    3.8293    0.0000 C   0  0  0  0  0  0  0  0  0  0  0  0
    2.6380    3.0678    0.0000 C   0  0  0  0  0  0  0  0  0  0  0  0
    3.9569    3.8293    0.0000 C   0  0  0  0  0  0  0  0  0  0  0  0
    5.2759    3.0678    0.0000 N   0  0  0  0  0  0  0  0  0  0  0  0
    5.2759    1.5448    0.0000 C   0  0  0  0  0  0  0  0  0  0  0  0
    3.9569    0.7833    0.0000 N   0  0  0  0  0  0  0  0  0  0  0  0
    3.9569    5.3523    0.0000 N   0  0  0  0  0  0  0  0  0  0  0  0
    1.3190    5.3523    0.0000 C   0  0  0  0  0  0  0  0  0  0  0  0
    2.6380    6.1138    0.0000 C   0  0  0  0  0  0  0  0  0  0  0  0
    2.6380    7.6368    0.0000 C   0  0  0  0  0  0  0  0  0  0  0  0
    1.3190    8.3983    0.0000 C   0  0  0  0  0  0  0  0  0  0  0  0
    0.0000    7.6368    0.0000 C   0  0  0  0  0  0  0  0  0  0  0  0
    0.0000    6.1138    0.0000 C   0  0  0  0  0  0  0  0  0  0  0  0
    3.9569    8.3983    0.0000 O   0  0  0  0  0  0  0  0  0  0  0  0
    3.9569    9.9213    0.0000 C   0  0  0  0  0  0  0  0  0  0  0  0
    6.5948    0.7833    0.0000 N   0  0  0  0  0  0  0  0  0  0  0  0
    0.3703    2.6379    0.0000 C   0  0  0  0  0  0  0  0  0  0  0  0
  1  2  1  0
  1  3  1  0
  4  5  1  0
  5  3  2  0
  5  6  1  0
  6  7  2  0
  7  8  1  0
  8  9  2  0
  9  3  1  0
  6 10  1  0
  4 11  1  0
 11 12  2  0
 12 10  1  0
 12 13  1  0
 13 14  2  0
 14 15  1  0
 15 16  2  0
 16 11  1  0
 13 17  1  0
 17 18  1  0
  8 19  1  0
  4 20  2  0
 20  1  1  0
A    2
R1
M  END
>  <symbol>  (664)
tclampA

>  <m_abbr>  (664)
tclampA

>  <m_type>  (664)
rna

>  <m_subtype>  (664)
natural

>  <m_RgroupIdx>  (664)
1

>  <m_Rgroups>  (664)
H

$$$$
5-cyclopropyl-cytosine
     RDKit          2D

 12 13  0  0  0  0  0  0  0  0999 V2000
    3.6373    0.7500    0.0000 C   0  0  0  0  0  0  0  0  0  0  0  0
    3.6373    2.2500    0.0000 C   0  0  0  0  0  0  0  0  0  0  0  0
    2.3383    3.0000    0.0000 C   0  0  0  0  0  0  0  0  0  0  0  0
    1.0393    2.2500    0.0000 N   0  0  0  0  0  0  0  0  0  0  0  0
    1.0393    0.7500    0.0000 C   0  0  0  0  0  0  0  0  0  0  0  0
    2.3383    0.0000    0.0000 N   0  0  0  0  0  0  0  0  0  0  0  0
    4.6766    0.1500    0.0000 N   0  0  0  0  0  0  0  0  0  0  0  0
    0.0000    0.1500    0.0000 O   0  0  0  0  0  0  0  0  0  0  0  0
    0.0000    2.8500    0.0000 R#  0  0  0  0  0  0  0  0  0  0  0  0
    4.9370    3.0004    0.0000 C   0  0  0  0  0  0  0  0  0  0  0  0
    6.3579    2.9570    0.0000 C   0  0  0  0  0  0  0  0  0  0  0  0
    5.6059    4.2548    0.0000 C   0  0  0  0  0  0  0  0  0  0  0  0
  1  2  1  0
  1  6  2  0
  1  7  1  0
  2  3  2  0
  3  4  1  0
  4  5  1  0
  4  9  1  0
  5  6  1  0
  5  8  2  0
  2 10  1  0
 10 11  1  0
 10 12  1  0
 12 11  1  0
A    9
R1
M  END
>  <symbol>  (665)
cp5C

>  <m_abbr>  (665)
cp5C

>  <m_type>  (665)
rna

>  <m_subtype>  (665)
natural

>  <m_RgroupIdx>  (665)
8

>  <m_Rgroups>  (665)
H

$$$$
5-cyclopropyl-uracil
     RDKit          2D

 12 13  0  0  0  0  0  0  0  0999 V2000
    3.6373    3.4596    0.0000 C   0  0  0  0  0  0  0  0  0  0  0  0
    2.3383    2.7096    0.0000 C   0  0  0  0  0  0  0  0  0  0  0  0
    1.0393    3.4596    0.0000 C   0  0  0  0  0  0  0  0  0  0  0  0
    1.0393    4.9596    0.0000 N   0  0  0  0  0  0  0  0  0  0  0  0
    2.3383    5.7096    0.0000 C   0  0  0  0  0  0  0  0  0  0  0  0
    3.6373    4.9596    0.0000 N   0  0  0  0  0  0  0  0  0  0  0  0
    4.6766    2.8596    0.0000 O   0  0  0  0  0  0  0  0  0  0  0  0
    2.3383    6.9096    0.0000 O   0  0  0  0  0  0  0  0  0  0  0  0
    0.0000    5.5596    0.0000 R#  0  0  0  0  0  0  0  0  0  0  0  0
    2.3383    1.2088    0.0000 C   0  0  0  0  0  0  0  0  0  0  0  0
    1.5902    0.0000    0.0000 C   0  0  0  0  0  0  0  0  0  0  0  0
    3.0902    0.0024    0.0000 C   0  0  0  0  0  0  0  0  0  0  0  0
  1  7  2  0
  1  6  1  0
  1  2  1  0
  2  3  2  0
  3  4  1  0
  4  5  1  0
  4  9  1  0
  5  8  2  0
  5  6  1  0
  2 10  1  0
 10 11  1  0
 10 12  1  0
 12 11  1  0
A    9
R1
M  END
>  <symbol>  (666)
cp5U

>  <m_abbr>  (666)
cp5U

>  <m_type>  (666)
rna

>  <m_subtype>  (666)
natural

>  <m_RgroupIdx>  (666)
8

>  <m_Rgroups>  (666)
H

$$$$
N-cyclopropylmethyl-adenine
     RDKit          2D

 15 17  0  0  0  0  0  0  0  0999 V2000
    4.8861    2.3733    0.0000 C   0  0  0  0  0  0  0  0  0  0  0  0
    3.5871    1.6233    0.0000 C   0  0  0  0  0  0  0  0  0  0  0  0
    2.2881    2.3733    0.0000 C   0  0  0  0  0  0  0  0  0  0  0  0
    2.2881    3.8733    0.0000 N   0  0  0  0  0  0  0  0  0  0  0  0
    3.5871    4.6233    0.0000 C   0  0  0  0  0  0  0  0  0  0  0  0
    4.8861    3.8733    0.0000 N   0  0  0  0  0  0  0  0  0  0  0  0
    1.1738    1.3703    0.0000 N   0  0  0  0  0  0  0  0  0  0  0  0
    1.7839    0.0000    0.0000 C   0  0  0  0  0  0  0  0  0  0  0  0
    3.2757    0.1568    0.0000 N   0  0  0  0  0  0  0  0  0  0  0  0
    6.1874    1.6256    0.0000 N   0  0  0  0  0  0  0  0  0  0  0  0
    0.0000    1.6199    0.0000 R#  0  0  0  0  0  0  0  0  0  0  0  0
    7.4861    2.3778    0.0000 C   0  0  0  0  0  0  0  0  0  0  0  0
    8.7874    1.6301    0.0000 C   0  0  0  0  0  0  0  0  0  0  0  0
   10.2083    1.6757    0.0000 C   0  0  0  0  0  0  0  0  0  0  0  0
    9.4582    0.3767    0.0000 C   0  0  0  0  0  0  0  0  0  0  0  0
  1 10  1  0
  1  6  1  0
  1  2  2  0
  9  2  1  0
  2  3  1  0
  7  3  1  0
  3  4  2  0
  4  5  1  0
  5  6  2  0
  7  8  1  0
  7 11  1  0
  8  9  2  0
 10 12  1  0
 12 13  1  0
 13 14  1  0
 13 15  1  0
 15 14  1  0
A   11
R1
M  END
>  <symbol>  (667)
cpm6A

>  <m_abbr>  (667)
cpm6A

>  <m_type>  (667)
rna

>  <m_subtype>  (667)
natural

>  <m_RgroupIdx>  (667)
10

>  <m_Rgroups>  (667)
H

$$$$
N,N-dimethyl-Adenine
     RDKit          2D

 13 14  0  0  0  0  0  0  0  0999 V2000
    4.8861    2.3733    0.0000 C   0  0  0  0  0  0  0  0  0  0  0  0
    3.5871    1.6233    0.0000 C   0  0  0  0  0  0  0  0  0  0  0  0
    2.2881    2.3733    0.0000 C   0  0  0  0  0  0  0  0  0  0  0  0
    2.2881    3.8733    0.0000 N   0  0  0  0  0  0  0  0  0  0  0  0
    3.5871    4.6233    0.0000 C   0  0  0  0  0  0  0  0  0  0  0  0
    4.8861    3.8733    0.0000 N   0  0  0  0  0  0  0  0  0  0  0  0
    1.1738    1.3703    0.0000 N   0  0  0  0  0  0  0  0  0  0  0  0
    1.7839    0.0000    0.0000 C   0  0  0  0  0  0  0  0  0  0  0  0
    3.2757    0.1568    0.0000 N   0  0  0  0  0  0  0  0  0  0  0  0
    6.1874    1.6256    0.0000 N   0  0  0  0  0  0  0  0  0  0  0  0
    0.0000    1.6199    0.0000 R#  0  0  0  0  0  0  0  0  0  0  0  0
    7.2258    2.2270    0.0000 C   0  0  0  0  0  0  0  0  0  0  0  0
    6.1895    0.4256    0.0000 C   0  0  0  0  0  0  0  0  0  0  0  0
  1 10  1  0
  1  6  2  0
  1  2  1  0
  9  2  1  0
  2  3  2  0
  7  3  1  0
  3  4  1  0
  4  5  2  0
  5  6  1  0
  7  8  1  0
  7 11  1  0
  8  9  2  0
 10 12  1  0
 10 13  1  0
A   11
R1
M  END
>  <symbol>  (668)
m62A

>  <m_abbr>  (668)
m62A

>  <m_type>  (668)
rna

>  <m_subtype>  (668)
natural

>  <m_RgroupIdx>  (668)
10

>  <m_Rgroups>  (668)
H

$$$$
7-deaza-8-aza-7-bromo-2-amino-Adenine
     RDKit          2D

 13 14  0  0  0  0  0  0  0  0999 V2000
    4.8861    3.1082    0.0000 C   0  0  0  0  0  0  0  0  0  0  0  0
    3.5871    2.3582    0.0000 C   0  0  0  0  0  0  0  0  0  0  0  0
    2.2881    3.1082    0.0000 C   0  0  0  0  0  0  0  0  0  0  0  0
    2.2881    4.6082    0.0000 N   0  0  0  0  0  0  0  0  0  0  0  0
    3.5871    5.3582    0.0000 C   0  0  0  0  0  0  0  0  0  0  0  0
    4.8861    4.6082    0.0000 N   0  0  0  0  0  0  0  0  0  0  0  0
    1.1738    2.1052    0.0000 N   0  0  0  0  0  0  0  0  0  0  0  0
    1.7839    0.7349    0.0000 N   0  0  0  0  0  0  0  0  0  0  0  0
    3.2757    0.8917    0.0000 C   0  0  0  0  0  0  0  0  0  0  0  0
    5.9254    2.5082    0.0000 N   0  0  0  0  0  0  0  0  0  0  0  0
    0.0000    2.3548    0.0000 R#  0  0  0  0  0  0  0  0  0  0  0  0
    3.5871    6.5582    0.0000 N   0  0  0  0  0  0  0  0  0  0  0  0
    4.0787    0.0000    0.0000 Br  0  0  0  0  0  0  0  0  0  0  0  0
  1 10  1  0
  1  6  2  0
  1  2  1  0
  9  2  1  0
  2  3  2  0
  7  3  1  0
  3  4  1  0
  4  5  2  0
  5  6  1  0
  7  8  1  0
  7 11  1  0
  8  9  2  0
  5 12  1  0
  9 13  1  0
A   11
R1
M  END
>  <symbol>  (669)
n2br7c7z8A

>  <m_abbr>  (669)
n2br7c7z8A

>  <m_type>  (669)
rna

>  <m_subtype>  (669)
natural

>  <m_RgroupIdx>  (669)
10

>  <m_Rgroups>  (669)
H

$$$$
2,4-Difluoro-Benzene
     RDKit          2D

  9  9  0  0  0  0  0  0  0  0999 V2000
    3.6373    0.7500    0.0000 C   0  0  0  0  0  0  0  0  0  0  0  0
    3.6373    2.2500    0.0000 C   0  0  0  0  0  0  0  0  0  0  0  0
    2.3383    3.0000    0.0000 C   0  0  0  0  0  0  0  0  0  0  0  0
    1.0393    2.2500    0.0000 C   0  0  0  0  0  0  0  0  0  0  0  0
    1.0393    0.7500    0.0000 C   0  0  0  0  0  0  0  0  0  0  0  0
    2.3383    0.0000    0.0000 C   0  0  0  0  0  0  0  0  0  0  0  0
    4.6766    0.1500    0.0000 F   0  0  0  0  0  0  0  0  0  0  0  0
    0.0000    0.1500    0.0000 F   0  0  0  0  0  0  0  0  0  0  0  0
    0.0000    2.8500    0.0000 R#  0  0  0  0  0  0  0  0  0  0  0  0
  1  2  2  0
  2  3  1  0
  3  4  2  0
  4  5  1  0
  5  6  2  0
  1  6  1  0
  1  7  1  0
  5  8  1  0
  4  9  1  0
A    9
R1
M  END
>  <symbol>  (670)
fl24Ph

>  <m_abbr>  (670)
fl24Ph

>  <m_type>  (670)
rna

>  <m_subtype>  (670)
natural

>  <m_RgroupIdx>  (670)
8

>  <m_Rgroups>  (670)
H

$$$$
N-ethyl-adenine
     RDKit          2D

 13 14  0  0  0  0  0  0  0  0999 V2000
    4.8861    2.3733    0.0000 C   0  0  0  0  0  0  0  0  0  0  0  0
    3.5871    1.6233    0.0000 C   0  0  0  0  0  0  0  0  0  0  0  0
    2.2881    2.3733    0.0000 C   0  0  0  0  0  0  0  0  0  0  0  0
    2.2881    3.8733    0.0000 N   0  0  0  0  0  0  0  0  0  0  0  0
    3.5871    4.6233    0.0000 C   0  0  0  0  0  0  0  0  0  0  0  0
    4.8861    3.8733    0.0000 N   0  0  0  0  0  0  0  0  0  0  0  0
    1.1738    1.3703    0.0000 N   0  0  0  0  0  0  0  0  0  0  0  0
    1.7839    0.0000    0.0000 C   0  0  0  0  0  0  0  0  0  0  0  0
    3.2757    0.1568    0.0000 N   0  0  0  0  0  0  0  0  0  0  0  0
    6.1874    1.6256    0.0000 N   0  0  0  0  0  0  0  0  0  0  0  0
    0.0000    1.6199    0.0000 R#  0  0  0  0  0  0  0  0  0  0  0  0
    7.4861    2.3778    0.0000 C   0  0  0  0  0  0  0  0  0  0  0  0
    8.5266    1.7800    0.0000 C   0  0  0  0  0  0  0  0  0  0  0  0
  1 10  1  0
  1  6  2  0
  1  2  1  0
  9  2  1  0
  2  3  2  0
  7  3  1  0
  3  4  1  0
  4  5  2  0
  5  6  1  0
  7  8  1  0
  7 11  1  0
  8  9  2  0
 10 12  1  0
 12 13  1  0
A   11
R1
M  END
>  <symbol>  (671)
e6A

>  <m_abbr>  (671)
e6A

>  <m_type>  (671)
rna

>  <m_subtype>  (671)
natural

>  <m_RgroupIdx>  (671)
10

>  <m_Rgroups>  (671)
H

$$$$
N-Methyl-Adenine
     RDKit          2D

 12 13  0  0  0  0  0  0  0  0999 V2000
    4.8861    2.3733    0.0000 C   0  0  0  0  0  0  0  0  0  0  0  0
    3.5871    1.6233    0.0000 C   0  0  0  0  0  0  0  0  0  0  0  0
    2.2881    2.3733    0.0000 C   0  0  0  0  0  0  0  0  0  0  0  0
    2.2881    3.8733    0.0000 N   0  0  0  0  0  0  0  0  0  0  0  0
    3.5871    4.6233    0.0000 C   0  0  0  0  0  0  0  0  0  0  0  0
    4.8861    3.8733    0.0000 N   0  0  0  0  0  0  0  0  0  0  0  0
    1.1738    1.3703    0.0000 N   0  0  0  0  0  0  0  0  0  0  0  0
    1.7839    0.0000    0.0000 C   0  0  0  0  0  0  0  0  0  0  0  0
    3.2757    0.1568    0.0000 N   0  0  0  0  0  0  0  0  0  0  0  0
    6.1874    1.6256    0.0000 N   0  0  0  0  0  0  0  0  0  0  0  0
    0.0000    1.6199    0.0000 R#  0  0  0  0  0  0  0  0  0  0  0  0
    7.2258    2.2270    0.0000 C   0  0  0  0  0  0  0  0  0  0  0  0
  1 10  1  0
  1  6  2  0
  1  2  1  0
  9  2  1  0
  2  3  2  0
  7  3  1  0
  3  4  1  0
  4  5  2  0
  5  6  1  0
  7  8  1  0
  7 11  1  0
  8  9  2  0
 10 12  1  0
A   11
R1
M  END
>  <symbol>  (672)
m6A

>  <m_abbr>  (672)
m6A

>  <m_type>  (672)
rna

>  <m_subtype>  (672)
natural

>  <m_RgroupIdx>  (672)
10

>  <m_Rgroups>  (672)
H

$$$$

     RDKit          2D

 12 12  0  0  0  0  0  0  0  0999 V2000
    6.5025    3.7525    0.0000 N   0  0  0  0  0  0  0  0  0  0  0  0
    6.5025    2.2500    0.0000 C   0  0  0  0  0  0  0  0  0  0  0  0
    5.2025    1.5000    0.0000 N   0  0  0  0  0  0  0  0  0  0  0  0
    3.9000    2.2500    0.0000 C   0  0  0  0  0  0  0  0  0  0  0  0
    3.9000    3.7525    0.0000 C   0  0  0  0  0  0  0  0  0  0  0  0
    5.2025    4.5025    0.0000 C   0  0  0  0  0  0  0  0  0  0  0  0
    5.2025    5.8975    0.0000 N   0  0  0  0  0  0  0  0  0  0  0  0
    7.8100    1.5000    0.0000 O   0  0  0  0  0  0  0  0  0  0  0  0
    2.6000    4.5025    0.0000 C   0  0  0  0  0  0  0  0  0  0  0  0
    1.3000    5.2525    0.0000 C   0  0  0  0  0  0  0  0  0  0  0  0
    0.0000    6.0025    0.0000 C   0  0  0  0  0  0  0  0  0  0  0  0
    5.2025    0.0000    0.0000 R#  0  0  0  0  0  0  0  0  0  0  0  0
  1  2  1  0
  2  3  1  0
  3  4  1  0
  4  5  2  0
  5  6  1  0
  1  6  2  0
  6  7  1  0
  2  8  2  0
  5  9  1  0
  9 10  3  0
 10 11  1  0
  3 12  1  0
A   12
R1
M  END
>  <symbol>  (673)
pry5C

>  <m_abbr>  (673)
pry5C

>  <m_type>  (673)
rna

>  <m_subtype>  (673)
natural

>  <m_RgroupIdx>  (673)
11

>  <m_Rgroups>  (673)
H

$$$$

     RDKit          2D

 12 12  0  0  0  0  0  0  0  0999 V2000
    6.5025    3.7525    0.0000 N   0  0  0  0  0  0  0  0  0  0  0  0
    6.5025    2.2500    0.0000 C   0  0  0  0  0  0  0  0  0  0  0  0
    5.2025    1.5000    0.0000 N   0  0  0  0  0  0  0  0  0  0  0  0
    3.9000    2.2500    0.0000 C   0  0  0  0  0  0  0  0  0  0  0  0
    3.9000    3.7525    0.0000 C   0  0  0  0  0  0  0  0  0  0  0  0
    5.2025    4.5025    0.0000 C   0  0  0  0  0  0  0  0  0  0  0  0
    5.2025    5.8975    0.0000 O   0  0  0  0  0  0  0  0  0  0  0  0
    7.8100    1.5000    0.0000 O   0  0  0  0  0  0  0  0  0  0  0  0
    2.6000    4.5025    0.0000 C   0  0  0  0  0  0  0  0  0  0  0  0
    1.3000    5.2525    0.0000 C   0  0  0  0  0  0  0  0  0  0  0  0
    0.0000    6.0025    0.0000 C   0  0  0  0  0  0  0  0  0  0  0  0
    5.2025    0.0000    0.0000 R#  0  0  0  0  0  0  0  0  0  0  0  0
  1  2  1  0
  2  3  1  0
  3  4  1  0
  4  5  2  0
  5  6  1  0
  1  6  1  0
  6  7  2  0
  2  8  2  0
  5  9  1  0
  9 10  3  0
 10 11  1  0
  3 12  1  0
A   12
R1
M  END
>  <symbol>  (674)
pry5U

>  <m_abbr>  (674)
pry5U

>  <m_type>  (674)
rna

>  <m_subtype>  (674)
natural

>  <m_RgroupIdx>  (674)
11

>  <m_Rgroups>  (674)
H

$$$$
5-trifluoromethyl-uracil
     RDKit          2D

 13 13  0  0  0  0  0  0  0  0999 V2000
    3.6373    3.4508    0.0000 C   0  0  0  0  0  0  0  0  0  0  0  0
    2.3383    2.7008    0.0000 C   0  0  0  0  0  0  0  0  0  0  0  0
    1.0393    3.4508    0.0000 C   0  0  0  0  0  0  0  0  0  0  0  0
    1.0393    4.9508    0.0000 N   0  0  0  0  0  0  0  0  0  0  0  0
    2.3383    5.7008    0.0000 C   0  0  0  0  0  0  0  0  0  0  0  0
    3.6373    4.9508    0.0000 N   0  0  0  0  0  0  0  0  0  0  0  0
    4.6766    2.8508    0.0000 O   0  0  0  0  0  0  0  0  0  0  0  0
    2.3383    6.9008    0.0000 O   0  0  0  0  0  0  0  0  0  0  0  0
    0.0000    5.5508    0.0000 R#  0  0  0  0  0  0  0  0  0  0  0  0
    2.3383    1.2000    0.0000 C   0  0  0  0  0  0  0  0  0  0  0  0
    3.3772    0.5993    0.0000 F   0  0  0  0  0  0  0  0  0  0  0  0
    1.2989    0.6003    0.0000 F   0  0  0  0  0  0  0  0  0  0  0  0
    2.3377    0.0000    0.0000 F   0  0  0  0  0  0  0  0  0  0  0  0
  1  7  2  0
  1  6  1  0
  1  2  1  0
  2  3  2  0
  3  4  1  0
  4  5  1  0
  4  9  1  0
  5  8  2  0
  5  6  1  0
  2 10  1  0
 10 11  1  0
 10 12  1  0
 10 13  1  0
A    9
R1
M  END
>  <symbol>  (675)
tflm5U

>  <m_abbr>  (675)
tflm5U

>  <m_type>  (675)
rna

>  <m_subtype>  (675)
natural

>  <m_RgroupIdx>  (675)
8

>  <m_Rgroups>  (675)
H

$$$$

     RDKit          2D

 10 10  0  0  0  0  0  0  0  0999 V2000
    3.8990    3.7499    0.0000 N   0  0  0  0  0  0  0  0  0  0  0  0
    3.8990    2.2499    0.0000 C   0  0  0  0  0  0  0  0  0  0  0  0
    2.6040    1.5000    0.0000 N   0  0  0  0  0  0  0  0  0  0  0  0
    1.2990    2.2499    0.0000 C   0  0  0  0  0  0  0  0  0  0  0  0
    1.2990    3.7499    0.0000 C   0  0  0  0  0  0  0  0  0  0  0  0
    2.6040    4.4999    0.0000 C   0  0  0  0  0  0  0  0  0  0  0  0
    2.6040    5.9999    0.0000 O   0  0  0  0  0  0  0  0  0  0  0  0
    2.6040    0.0000    0.0000 R#  0  0  0  0  0  0  0  0  0  0  0  0
    5.1981    1.5000    0.0000 O   0  0  0  0  0  0  0  0  0  0  0  0
    0.0000    4.4999    0.0000 Br  0  0  0  0  0  0  0  0  0  0  0  0
  1  2  1  0
  2  3  1  0
  3  4  1  0
  4  5  2  0
  5  6  1  0
  1  6  1  0
  6  7  2  0
  3  8  1  0
  2  9  2  0
  5 10  1  0
A    8
R1
M  END
>  <symbol>  (676)
br5U

>  <m_abbr>  (676)
br5U

>  <m_type>  (676)
rna

>  <m_subtype>  (676)
natural

>  <m_RgroupIdx>  (676)
7

>  <m_Rgroups>  (676)
H

$$$$

     RDKit          2D

 10 10  0  0  0  0  0  0  0  0999 V2000
    3.9182    3.7499    0.0000 N   0  0  0  0  0  0  0  0  0  0  0  0
    3.9182    2.2499    0.0000 C   0  0  0  0  0  0  0  0  0  0  0  0
    2.6232    1.5000    0.0000 N   0  0  0  0  0  0  0  0  0  0  0  0
    1.3182    2.2499    0.0000 C   0  0  0  0  0  0  0  0  0  0  0  0
    1.3182    3.7499    0.0000 C   0  0  0  0  0  0  0  0  0  0  0  0
    2.6232    4.4999    0.0000 C   0  0  0  0  0  0  0  0  0  0  0  0
    2.6232    5.9999    0.0000 O   0  0  0  0  0  0  0  0  0  0  0  0
    2.6232    0.0000    0.0000 R#  0  0  0  0  0  0  0  0  0  0  0  0
    5.2173    1.5000    0.0000 O   0  0  0  0  0  0  0  0  0  0  0  0
    0.0000    1.4871    0.0000 C   0  0  0  0  0  0  0  0  0  0  0  0
  1  2  1  0
  2  3  1  0
  3  4  1  0
  4  5  2  0
  5  6  1  0
  1  6  1  0
  6  7  2  0
  3  8  1  0
  2  9  2  0
  4 10  1  0
A    8
R1
M  END
>  <symbol>  (677)
m6U

>  <m_abbr>  (677)
m6U

>  <m_type>  (677)
rna

>  <m_subtype>  (677)
natural

>  <m_RgroupIdx>  (677)
7

>  <m_Rgroups>  (677)
H

$$$$

     RDKit          2D

 11 11  0  0  0  0  0  0  0  0999 V2000
    3.9182    3.7499    0.0000 N   0  0  0  0  0  0  0  0  0  0  0  0
    3.9182    2.2499    0.0000 C   0  0  0  0  0  0  0  0  0  0  0  0
    2.6232    1.5000    0.0000 N   0  0  0  0  0  0  0  0  0  0  0  0
    1.3182    2.2499    0.0000 C   0  0  0  0  0  0  0  0  0  0  0  0
    1.3182    3.7499    0.0000 C   0  0  0  0  0  0  0  0  0  0  0  0
    2.6232    4.4999    0.0000 C   0  0  0  0  0  0  0  0  0  0  0  0
    2.6232    5.9999    0.0000 O   0  0  0  0  0  0  0  0  0  0  0  0
    2.6232    0.0000    0.0000 R#  0  0  0  0  0  0  0  0  0  0  0  0
    5.2173    1.5000    0.0000 O   0  0  0  0  0  0  0  0  0  0  0  0
    0.0000    1.4871    0.0000 C   0  0  0  0  0  0  0  0  0  0  0  0
    0.0000    4.5127    0.0000 C   0  0  0  0  0  0  0  0  0  0  0  0
  1  2  1  0
  2  3  1  0
  3  4  1  0
  4  5  2  0
  5  6  1  0
  1  6  1  0
  6  7  2  0
  3  8  1  0
  2  9  2  0
  4 10  1  0
  5 11  1  0
A    8
R1
M  END
>  <symbol>  (678)
m6T

>  <m_abbr>  (678)
m6T

>  <m_type>  (678)
rna

>  <m_subtype>  (678)
natural

>  <m_RgroupIdx>  (678)
7

>  <m_Rgroups>  (678)
H

$$$$

     RDKit          2D

  9  9  0  0  0  0  0  0  0  0999 V2000
    2.6000    3.7499    0.0000 N   0  0  0  0  0  0  0  0  0  0  0  0
    2.6000    2.2499    0.0000 C   0  0  0  0  0  0  0  0  0  0  0  0
    1.3050    1.5000    0.0000 N   0  0  0  0  0  0  0  0  0  0  0  0
    0.0000    2.2499    0.0000 N   0  0  0  0  0  0  0  0  0  0  0  0
    0.0000    3.7499    0.0000 C   0  0  0  0  0  0  0  0  0  0  0  0
    1.3050    4.4999    0.0000 C   0  0  0  0  0  0  0  0  0  0  0  0
    1.3050    5.9999    0.0000 O   0  0  0  0  0  0  0  0  0  0  0  0
    1.3050    0.0000    0.0000 R#  0  0  0  0  0  0  0  0  0  0  0  0
    3.8991    1.5000    0.0000 O   0  0  0  0  0  0  0  0  0  0  0  0
  1  2  1  0
  2  3  1  0
  3  4  1  0
  4  5  2  0
  5  6  1  0
  1  6  1  0
  6  7  2  0
  3  8  1  0
  2  9  2  0
A    8
R1
M  END
>  <symbol>  (679)
z6U

>  <m_abbr>  (679)
z6U

>  <m_type>  (679)
rna

>  <m_subtype>  (679)
natural

>  <m_RgroupIdx>  (679)
7

>  <m_Rgroups>  (679)
H

$$$$

     RDKit          2D

 14 15  0  0  0  0  0  0  0  0999 V2000
    6.3676    3.8075    0.0000 N   0  0  0  0  0  0  0  0  0  0  0  0
    6.3676    2.2845    0.0000 C   0  0  0  0  0  0  0  0  0  0  0  0
    5.0528    1.5230    0.0000 N   0  0  0  0  0  0  0  0  0  0  0  0
    3.7277    2.2845    0.0000 N   0  0  0  0  0  0  0  0  0  0  0  0
    3.7277    3.8075    0.0000 C   0  0  0  0  0  0  0  0  0  0  0  0
    5.0528    4.5690    0.0000 C   0  0  0  0  0  0  0  0  0  0  0  0
    5.0528    6.0920    0.0000 O   0  0  0  0  0  0  0  0  0  0  0  0
    5.0528    0.0000    0.0000 R#  0  0  0  0  0  0  0  0  0  0  0  0
    7.6866    1.5230    0.0000 O   0  0  0  0  0  0  0  0  0  0  0  0
    2.2487    6.0889    0.0000 C   0  0  0  0  0  0  0  0  0  0  0  0
    0.7607    6.4028    0.0000 C   0  0  0  0  0  0  0  0  0  0  0  0
    0.0000    5.0835    0.0000 C   0  0  0  0  0  0  0  0  0  0  0  0
    1.0173    3.9498    0.0000 S   0  0  0  0  0  0  0  0  0  0  0  0
    2.4088    4.5690    0.0000 C   0  0  0  0  0  0  0  0  0  0  0  0
  1  2  1  0
  2  3  1  0
  3  4  1  0
  4  5  2  0
  5  6  1  0
  1  6  1  0
  6  7  2  0
  3  8  1  0
  2  9  2  0
 10 11  1  0
 11 12  2  0
 12 13  1  0
 13 14  1  0
 10 14  2  0
  5 14  1  0
A    8
R1
M  END
>  <symbol>  (680)
thien5z6U

>  <m_abbr>  (680)
thien5z6U

>  <m_type>  (680)
rna

>  <m_subtype>  (680)
natural

>  <m_RgroupIdx>  (680)
7

>  <m_Rgroups>  (680)
H

$$$$

     RDKit          2D

 11 11  0  0  0  0  0  0  0  0999 V2000
    5.2778    3.8075    0.0000 N   0  0  0  0  0  0  0  0  0  0  0  0
    5.2778    2.2845    0.0000 C   0  0  0  0  0  0  0  0  0  0  0  0
    3.9629    1.5230    0.0000 N   0  0  0  0  0  0  0  0  0  0  0  0
    2.6394    2.2845    0.0000 C   0  0  0  0  0  0  0  0  0  0  0  0
    2.6379    3.8075    0.0000 C   0  0  0  0  0  0  0  0  0  0  0  0
    3.9629    4.5690    0.0000 C   0  0  0  0  0  0  0  0  0  0  0  0
    3.9629    6.0920    0.0000 O   0  0  0  0  0  0  0  0  0  0  0  0
    3.9629    0.0000    0.0000 R#  0  0  0  0  0  0  0  0  0  0  0  0
    6.5967    1.5230    0.0000 O   0  0  0  0  0  0  0  0  0  0  0  0
    1.3190    4.5690    0.0000 O   0  0  0  0  0  0  0  0  0  0  0  0
    0.0000    3.8075    0.0000 C   0  0  0  0  0  0  0  0  0  0  0  0
  1  2  1  0
  2  3  1  0
  3  4  1  0
  4  5  2  0
  5  6  1  0
  1  6  1  0
  6  7  2  0
  3  8  1  0
  2  9  2  0
  5 10  1  0
 10 11  1  0
A    8
R1
M  END
>  <symbol>  (681)
mo6U

>  <m_abbr>  (681)
mo6U

>  <m_type>  (681)
rna

>  <m_subtype>  (681)
natural

>  <m_RgroupIdx>  (681)
7

>  <m_Rgroups>  (681)
H

$$$$

     RDKit          2D

 10 10  0  0  0  0  0  0  0  0999 V2000
    3.9588    3.8075    0.0000 N   0  0  0  0  0  0  0  0  0  0  0  0
    3.9588    2.2845    0.0000 C   0  0  0  0  0  0  0  0  0  0  0  0
    2.6439    1.5230    0.0000 N   0  0  0  0  0  0  0  0  0  0  0  0
    1.3189    2.2845    0.0000 C   0  0  0  0  0  0  0  0  0  0  0  0
    1.3189    3.8075    0.0000 C   0  0  0  0  0  0  0  0  0  0  0  0
    2.6439    4.5690    0.0000 C   0  0  0  0  0  0  0  0  0  0  0  0
    2.6439    6.0920    0.0000 O   0  0  0  0  0  0  0  0  0  0  0  0
    2.6439    0.0000    0.0000 R#  0  0  0  0  0  0  0  0  0  0  0  0
    5.2777    1.5230    0.0000 S   0  0  0  0  0  0  0  0  0  0  0  0
    0.0000    4.5690    0.0000 C   0  0  0  0  0  0  0  0  0  0  0  0
  1  2  1  0
  2  3  1  0
  3  4  1  0
  4  5  2  0
  5  6  1  0
  1  6  1  0
  6  7  2  0
  3  8  1  0
  2  9  2  0
  5 10  1  0
A    8
R1
M  END
>  <symbol>  (682)
s2T

>  <m_abbr>  (682)
s2T

>  <m_type>  (682)
rna

>  <m_subtype>  (682)
natural

>  <m_RgroupIdx>  (682)
7

>  <m_Rgroups>  (682)
H

$$$$

     RDKit          2D

 12 13  0  0  0  0  0  0  0  0999 V2000
    4.9260    3.7962    0.0000 N   0  0  0  0  0  0  0  0  0  0  0  0
    4.9260    2.2790    0.0000 C   0  0  0  0  0  0  0  0  0  0  0  0
    3.6146    1.5177    0.0000 N   0  0  0  0  0  0  0  0  0  0  0  0
    2.2961    2.2790    0.0000 C   0  0  0  0  0  0  0  0  0  0  0  0
    2.2961    3.7962    0.0000 C   0  0  0  0  0  0  0  0  0  0  0  0
    3.6161    4.5548    0.0000 C   0  0  0  0  0  0  0  0  0  0  0  0
    3.6161    6.0725    0.0000 O   0  0  0  0  0  0  0  0  0  0  0  0
    3.6146    0.0000    0.0000 R#  0  0  0  0  0  0  0  0  0  0  0  0
    6.2404    1.5201    0.0000 O   0  0  0  0  0  0  0  0  0  0  0  0
    0.8294    4.1882    0.0000 C   0  0  0  0  0  0  0  0  0  0  0  0
    0.0000    2.9137    0.0000 C   0  0  0  0  0  0  0  0  0  0  0  0
    0.9533    1.7327    0.0000 C   0  0  0  0  0  0  0  0  0  0  0  0
  1  2  1  0
  2  3  1  0
  3  4  1  0
  4  5  2  0
  5  6  1  0
  1  6  1  0
  6  7  2  0
  3  8  1  0
  2  9  2  0
  5 10  1  0
 10 11  1  0
 11 12  1  0
  4 12  1  0
A    8
R1
M  END
>  <symbol>  (683)
pr56U

>  <m_abbr>  (683)
pr56U

>  <m_type>  (683)
rna

>  <m_subtype>  (683)
natural

>  <m_RgroupIdx>  (683)
7

>  <m_Rgroups>  (683)
H

$$$$

     RDKit          2D

 12 13  0  0  0  0  0  0  0  0999 V2000
    4.9847    1.9260    0.0000 C   0  0  0  0  0  0  0  0  0  0  0  0
    3.6652    1.1623    0.0000 N   0  0  0  0  0  0  0  0  0  0  0  0
    2.3424    1.9260    0.0000 C   0  0  0  0  0  0  0  0  0  0  0  0
    2.3424    3.4478    0.0000 C   0  0  0  0  0  0  0  0  0  0  0  0
    3.6661    4.2074    0.0000 C   0  0  0  0  0  0  0  0  0  0  0  0
    4.9847    3.4478    0.0000 N   0  0  0  0  0  0  0  0  0  0  0  0
    0.8943    1.4484    0.0000 N   0  0  0  0  0  0  0  0  0  0  0  0
    0.0000    2.6856    0.0000 C   0  0  0  0  0  0  0  0  0  0  0  0
    0.8943    3.9127    0.0000 N   0  0  0  0  0  0  0  0  0  0  0  0
    3.6661    5.7304    0.0000 N   0  0  0  0  0  0  0  0  0  0  0  0
    6.3036    1.1645    0.0000 N   0  0  0  0  0  0  0  0  0  0  0  0
    0.4234    0.0000    0.0000 R#  0  0  0  0  0  0  0  0  0  0  0  0
  1  2  2  0
  2  3  1  0
  3  4  2  0
  4  5  1  0
  5  6  2  0
  1  6  1  0
  3  7  1  0
  7  8  1  0
  8  9  2  0
  4  9  1  0
  5 10  1  0
  1 11  1  0
  7 12  1  0
A   12
R1
M  END
>  <symbol>  (684)
n2A

>  <m_abbr>  (684)
n2A

>  <m_type>  (684)
rna

>  <m_subtype>  (684)
natural

>  <m_RgroupIdx>  (684)
11

>  <m_Rgroups>  (684)
H

$$$$

     RDKit          2D

 20 22  0  0  0  0  0  0  0  0999 V2000
    3.9576    4.5723    0.0000 C   0  0  0  0  0  0  0  0  0  0  0  0
    2.6384    3.8113    0.0000 C   0  0  0  0  0  0  0  0  0  0  0  0
    2.6384    2.2866    0.0000 C   0  0  0  0  0  0  0  0  0  0  0  0
    3.9576    1.5230    0.0000 N   0  0  0  0  0  0  0  0  0  0  0  0
    5.2743    2.2866    0.0000 C   0  0  0  0  0  0  0  0  0  0  0  0
    5.2743    3.8113    0.0000 N   0  0  0  0  0  0  0  0  0  0  0  0
    6.5932    1.5251    0.0000 O   0  0  0  0  0  0  0  0  0  0  0  0
    3.9576    6.0945    0.0000 N   0  0  0  0  0  0  0  0  0  0  0  0
    2.6384    6.8556    0.0000 C   0  0  0  0  0  0  0  0  0  0  0  0
    1.3192    6.0945    0.0000 C   0  0  0  0  0  0  0  0  0  0  0  0
    1.3192    4.5723    0.0000 O   0  0  0  0  0  0  0  0  0  0  0  0
    2.6384    8.3777    0.0000 C   0  0  0  0  0  0  0  0  0  0  0  0
    1.3192    9.1388    0.0000 C   0  0  0  0  0  0  0  0  0  0  0  0
    0.0000    8.3777    0.0000 C   0  0  0  0  0  0  0  0  0  0  0  0
    0.0000    6.8556    0.0000 C   0  0  0  0  0  0  0  0  0  0  0  0
    3.9574    9.1392    0.0000 O   0  0  0  0  0  0  0  0  0  0  0  0
    5.2763    8.3777    0.0000 C   0  0  0  0  0  0  0  0  0  0  0  0
    6.5953    9.1392    0.0000 C   0  0  0  0  0  0  0  0  0  0  0  0
    7.9142    8.3777    0.0000 N   0  0  0  0  0  0  0  0  0  0  0  0
    3.9576    0.0000    0.0000 R#  0  0  0  0  0  0  0  0  0  0  0  0
  1  2  1  0
  2  3  2  0
  3  4  1  0
  4  5  1  0
  5  6  1  0
  1  6  2  0
  5  7  2  0
  1  8  1  0
  8  9  1  0
  9 10  2  0
 10 11  1  0
  2 11  1  0
  9 12  1  0
 12 13  2  0
 13 14  1  0
 14 15  2  0
 10 15  1  0
 16 17  1  0
 17 18  1  0
 18 19  1  0
 12 16  1  0
  4 20  1  0
A   20
R1
M  END
>  <symbol>  (685)
gclampC

>  <m_abbr>  (685)
gclampC

>  <m_type>  (685)
rna

>  <m_subtype>  (685)
natural

>  <m_RgroupIdx>  (685)
19

>  <m_Rgroups>  (685)
H

$$$$

     RDKit          2D

 10 10  0  0  0  0  0  0  0  0999 V2000
    3.9588    3.8075    0.0000 N   0  0  0  0  0  0  0  0  0  0  0  0
    3.9588    2.2845    0.0000 C   0  0  0  0  0  0  0  0  0  0  0  0
    2.6439    1.5230    0.0000 N   0  0  0  0  0  0  0  0  0  0  0  0
    1.3189    2.2845    0.0000 C   0  0  0  0  0  0  0  0  0  0  0  0
    1.3189    3.8075    0.0000 C   0  0  0  0  0  0  0  0  0  0  0  0
    2.6439    4.5690    0.0000 C   0  0  0  0  0  0  0  0  0  0  0  0
    2.6439    6.0920    0.0000 N   0  0  0  0  0  0  0  0  0  0  0  0
    2.6439    0.0000    0.0000 R#  0  0  0  0  0  0  0  0  0  0  0  0
    5.2777    1.5230    0.0000 O   0  0  0  0  0  0  0  0  0  0  0  0
    0.0000    4.5690    0.0000 Br  0  0  0  0  0  0  0  0  0  0  0  0
  1  2  1  0
  2  3  1  0
  3  4  1  0
  4  5  2  0
  5  6  1  0
  1  6  2  0
  6  7  1  0
  3  8  1  0
  2  9  2  0
  5 10  1  0
A    8
R1
M  END
>  <symbol>  (686)
br5C

>  <m_abbr>  (686)
br5C

>  <m_type>  (686)
rna

>  <m_subtype>  (686)
natural

>  <m_RgroupIdx>  (686)
7

>  <m_Rgroups>  (686)
H

$$$$

     RDKit          2D

  9  9  0  0  0  0  0  0  0  0999 V2000
    2.6000    3.7499    0.0000 N   0  0  0  0  0  0  0  0  0  0  0  0
    2.6000    2.2499    0.0000 C   0  0  0  0  0  0  0  0  0  0  0  0
    1.3050    1.5000    0.0000 N   0  0  0  0  0  0  0  0  0  0  0  0
    0.0000    2.2499    0.0000 N   0  0  0  0  0  0  0  0  0  0  0  0
    0.0000    3.7499    0.0000 C   0  0  0  0  0  0  0  0  0  0  0  0
    1.3050    4.4999    0.0000 C   0  0  0  0  0  0  0  0  0  0  0  0
    1.3050    5.9999    0.0000 N   0  0  0  0  0  0  0  0  0  0  0  0
    1.3050    0.0000    0.0000 R#  0  0  0  0  0  0  0  0  0  0  0  0
    3.8991    1.5000    0.0000 O   0  0  0  0  0  0  0  0  0  0  0  0
  1  2  1  0
  2  3  1  0
  3  4  1  0
  4  5  2  0
  5  6  1  0
  1  6  2  0
  6  7  1  0
  3  8  1  0
  2  9  2  0
A    8
R1
M  END
>  <symbol>  (687)
z5C

>  <m_abbr>  (687)
z5C

>  <m_type>  (687)
rna

>  <m_subtype>  (687)
natural

>  <m_RgroupIdx>  (687)
7

>  <m_Rgroups>  (687)
H

$$$$

     RDKit          2D

 10 10  0  0  0  0  0  0  0  0999 V2000
    3.9182    3.7499    0.0000 N   0  0  0  0  0  0  0  0  0  0  0  0
    3.9182    2.2499    0.0000 C   0  0  0  0  0  0  0  0  0  0  0  0
    2.6232    1.5000    0.0000 N   0  0  0  0  0  0  0  0  0  0  0  0
    1.3182    2.2499    0.0000 N   0  0  0  0  0  0  0  0  0  0  0  0
    1.3182    3.7499    0.0000 C   0  0  0  0  0  0  0  0  0  0  0  0
    2.6232    4.4999    0.0000 C   0  0  0  0  0  0  0  0  0  0  0  0
    2.6232    5.9999    0.0000 O   0  0  0  0  0  0  0  0  0  0  0  0
    2.6232    0.0000    0.0000 R#  0  0  0  0  0  0  0  0  0  0  0  0
    5.2173    1.5000    0.0000 O   0  0  0  0  0  0  0  0  0  0  0  0
    0.0000    4.5127    0.0000 C   0  0  0  0  0  0  0  0  0  0  0  0
  1  2  1  0
  2  3  1  0
  3  4  1  0
  4  5  2  0
  5  6  1  0
  1  6  1  0
  6  7  2  0
  3  8  1  0
  2  9  2  0
  5 10  1  0
A    8
R1
M  END
>  <symbol>  (688)
z5T

>  <m_abbr>  (688)
z5T

>  <m_type>  (688)
rna

>  <m_subtype>  (688)
natural

>  <m_RgroupIdx>  (688)
7

>  <m_Rgroups>  (688)
H

$$$$

     RDKit          2D

 23 25  0  0  0  0  0  0  0  0999 V2000
    3.9599    0.0000    0.0000 R#  0  0  0  0  0  0  0  0  0  0  0  0
    5.2746    3.7997    0.0000 N   0  0  0  0  0  0  0  0  0  0  0  0
    5.2746    2.2805    0.0000 C   0  0  0  0  0  0  0  0  0  0  0  0
    3.9599    1.5230    0.0000 N   0  0  0  0  0  0  0  0  0  0  0  0
    2.6453    2.2805    0.0000 C   0  0  0  0  0  0  0  0  0  0  0  0
    2.6453    3.7997    0.0000 C   0  0  0  0  0  0  0  0  0  0  0  0
    3.9599    4.5612    0.0000 C   0  0  0  0  0  0  0  0  0  0  0  0
    6.5936    1.5190    0.0000 O   0  0  0  0  0  0  0  0  0  0  0  0
    3.9599    6.0842    0.0000 N   0  0  0  0  0  0  0  0  0  0  0  0
    2.6453    6.8458    0.0000 C   0  0  0  0  0  0  0  0  0  0  0  0
    1.3226    6.0842    0.0000 C   0  0  0  0  0  0  0  0  0  0  0  0
    1.3226    4.5612    0.0000 O   0  0  0  0  0  0  0  0  0  0  0  0
    2.6453    8.3689    0.0000 C   0  0  0  0  0  0  0  0  0  0  0  0
    1.3226    9.1304    0.0000 C   0  0  0  0  0  0  0  0  0  0  0  0
    0.0000    8.3689    0.0000 C   0  0  0  0  0  0  0  0  0  0  0  0
    0.0000    6.8458    0.0000 C   0  0  0  0  0  0  0  0  0  0  0  0
    3.9643    9.1304    0.0000 O   0  0  0  0  0  0  0  0  0  0  0  0
    5.2832    8.3689    0.0000 C   0  0  0  0  0  0  0  0  0  0  0  0
    6.6022    9.1304    0.0000 C   0  0  0  0  0  0  0  0  0  0  0  0
    7.9211    8.3689    0.0000 N   0  0  0  0  0  0  0  0  0  0  0  0
    9.2401    9.1304    0.0000 C   0  0  0  0  0  0  0  0  0  0  0  0
   10.5590    8.3689    0.0000 N   0  0  0  0  0  0  0  0  0  0  0  0
    9.2401   10.6534    0.0000 N   0  0  0  0  0  0  0  0  0  0  0  0
  2  3  1  0
  3  4  1  0
  4  5  1  0
  5  6  2  0
  6  7  1  0
  2  7  2  0
  3  8  2  0
  1  4  1  0
  7  9  1  0
  9 10  1  0
 10 11  2  0
 11 12  1  0
  6 12  1  0
 10 13  1  0
 13 14  2  0
 14 15  1  0
 15 16  2  0
 11 16  1  0
 13 17  1  0
 17 18  1  0
 18 19  1  0
 19 20  1  0
 20 21  1  0
 21 22  1  0
 21 23  2  0
A    1
R1
M  END
>  <symbol>  (689)
ggclampC

>  <m_abbr>  (689)
ggclampC

>  <m_type>  (689)
rna

>  <m_subtype>  (689)
natural

>  <m_RgroupIdx>  (689)
0

>  <m_Rgroups>  (689)
H

$$$$

     RDKit          2D

 12 13  0  0  0  0  0  0  0  0999 V2000
    4.9655    3.4283    0.0000 N   0  0  0  0  0  0  0  0  0  0  0  0
    4.9655    1.9106    0.0000 C   0  0  0  0  0  0  0  0  0  0  0  0
    3.6537    1.1491    0.0000 C   0  0  0  0  0  0  0  0  0  0  0  0
    2.3348    1.9106    0.0000 C   0  0  0  0  0  0  0  0  0  0  0  0
    2.3348    3.4283    0.0000 C   0  0  0  0  0  0  0  0  0  0  0  0
    3.6552    4.1872    0.0000 C   0  0  0  0  0  0  0  0  0  0  0  0
    0.0000    2.6695    0.0000 N   0  0  0  0  0  0  0  0  0  0  0  0
    0.8930    3.9039    0.0000 N   0  0  0  0  0  0  0  0  0  0  0  0
    3.6552    5.7049    0.0000 O   0  0  0  0  0  0  0  0  0  0  0  0
    6.2799    1.1518    0.0000 N   0  0  0  0  0  0  0  0  0  0  0  0
    0.8930    1.4427    0.0000 N   0  0  0  0  0  0  0  0  0  0  0  0
    0.4215    0.0000    0.0000 R#  0  0  0  0  0  0  0  0  0  0  0  0
  1  2  1  0
  2  3  2  0
  3  4  1  0
  4  5  2  0
  5  6  1  0
  1  6  1  0
  7  8  2  0
  5  8  1  0
  6  9  2  0
  2 10  1  0
  4 11  1  0
  7 11  1  0
 11 12  1  0
A   12
R1
M  END
>  <symbol>  (690)
z8c3G

>  <m_abbr>  (690)
z8c3G

>  <m_type>  (690)
rna

>  <m_subtype>  (690)
natural

>  <m_RgroupIdx>  (690)
11

>  <m_Rgroups>  (690)
H

$$$$

     RDKit          2D

 16 18  0  0  0  0  0  0  0  0999 V2000
    3.9599    0.0000    0.0000 R#  0  0  0  0  0  0  0  0  0  0  0  0
    5.2746    3.7997    0.0000 N   0  0  0  0  0  0  0  0  0  0  0  0
    5.2746    2.2805    0.0000 C   0  0  0  0  0  0  0  0  0  0  0  0
    3.9599    1.5230    0.0000 N   0  0  0  0  0  0  0  0  0  0  0  0
    2.6453    2.2805    0.0000 C   0  0  0  0  0  0  0  0  0  0  0  0
    2.6453    3.7997    0.0000 C   0  0  0  0  0  0  0  0  0  0  0  0
    3.9599    4.5612    0.0000 C   0  0  0  0  0  0  0  0  0  0  0  0
    6.5936    1.5190    0.0000 O   0  0  0  0  0  0  0  0  0  0  0  0
    3.9599    6.0842    0.0000 N   0  0  0  0  0  0  0  0  0  0  0  0
    2.6453    6.8458    0.0000 C   0  0  0  0  0  0  0  0  0  0  0  0
    1.3226    6.0842    0.0000 C   0  0  0  0  0  0  0  0  0  0  0  0
    1.3226    4.5612    0.0000 O   0  0  0  0  0  0  0  0  0  0  0  0
    2.6453    8.3689    0.0000 C   0  0  0  0  0  0  0  0  0  0  0  0
    1.3226    9.1304    0.0000 C   0  0  0  0  0  0  0  0  0  0  0  0
    0.0000    8.3689    0.0000 C   0  0  0  0  0  0  0  0  0  0  0  0
    0.0000    6.8458    0.0000 C   0  0  0  0  0  0  0  0  0  0  0  0
  2  3  1  0
  3  4  1  0
  4  5  1  0
  5  6  2  0
  6  7  1  0
  2  7  2  0
  3  8  2  0
  1  4  1  0
  7  9  1  0
  9 10  1  0
 10 11  2  0
 11 12  1  0
  6 12  1  0
 10 13  1  0
 13 14  2  0
 14 15  1  0
 15 16  2  0
 11 16  1  0
A    1
R1
M  END
>  <symbol>  (691)
phoxC

>  <m_abbr>  (691)
phoxC

>  <m_type>  (691)
rna

>  <m_subtype>  (691)
natural

>  <m_RgroupIdx>  (691)
0

>  <m_Rgroups>  (691)
H

$$$$

     RDKit          2D

  9  9  0  0  0  0  0  0  0  0999 V2000
    2.6000    3.7499    0.0000 N   0  0  0  0  0  0  0  0  0  0  0  0
    2.6000    2.2499    0.0000 C   0  0  0  0  0  0  0  0  0  0  0  0
    1.3050    1.5000    0.0000 N   0  0  0  0  0  0  0  0  0  0  0  0
    0.0000    2.2499    0.0000 C   0  0  0  0  0  0  0  0  0  0  0  0
    0.0000    3.7499    0.0000 C   0  0  0  0  0  0  0  0  0  0  0  0
    1.3050    4.4999    0.0000 C   0  0  0  0  0  0  0  0  0  0  0  0
    1.3050    5.9999    0.0000 O   0  0  0  0  0  0  0  0  0  0  0  0
    1.3050    0.0000    0.0000 R#  0  0  0  0  0  0  0  0  0  0  0  0
    3.8991    1.5000    0.0000 S   0  0  0  0  0  0  0  0  0  0  0  0
  1  2  1  0
  2  3  1  0
  3  4  1  0
  4  5  2  0
  5  6  1  0
  1  6  1  0
  6  7  2  0
  3  8  1  0
  2  9  2  0
A    8
R1
M  END
>  <symbol>  (692)
s2U

>  <m_abbr>  (692)
s2U

>  <m_type>  (692)
rna

>  <m_subtype>  (692)
natural

>  <m_RgroupIdx>  (692)
7

>  <m_Rgroups>  (692)
H

$$$$

     RDKit          2D

 12 13  0  0  0  0  0  0  0  0999 V2000
    4.9828    3.4403    0.0000 N   0  0  0  0  0  0  0  0  0  0  0  0
    4.9828    1.9173    0.0000 C   0  0  0  0  0  0  0  0  0  0  0  0
    3.6664    1.1531    0.0000 N   0  0  0  0  0  0  0  0  0  0  0  0
    2.3429    1.9173    0.0000 C   0  0  0  0  0  0  0  0  0  0  0  0
    2.3429    3.4403    0.0000 C   0  0  0  0  0  0  0  0  0  0  0  0
    3.6679    4.2018    0.0000 C   0  0  0  0  0  0  0  0  0  0  0  0
    0.0000    2.6788    0.0000 C   0  0  0  0  0  0  0  0  0  0  0  0
    0.8961    3.9175    0.0000 N   0  0  0  0  0  0  0  0  0  0  0  0
    3.6679    5.7248    0.0000 N   0  0  0  0  0  0  0  0  0  0  0  0
    0.8961    1.4477    0.0000 N   0  0  0  0  0  0  0  0  0  0  0  0
    0.4229    0.0000    0.0000 R#  0  0  0  0  0  0  0  0  0  0  0  0
    6.3017    1.1558    0.0000 Cl  0  0  0  0  0  0  0  0  0  0  0  0
  1  2  2  0
  2  3  1  0
  3  4  2  0
  4  5  1  0
  5  6  2  0
  1  6  1  0
  7  8  2  0
  5  8  1  0
  6  9  1  0
  4 10  1  0
  7 10  1  0
 10 11  1  0
  2 12  1  0
A   11
R1
M  END
>  <symbol>  (693)
cl3A

>  <m_abbr>  (693)
cl3A

>  <m_type>  (693)
rna

>  <m_subtype>  (693)
natural

>  <m_RgroupIdx>  (693)
10

>  <m_Rgroups>  (693)
H

$$$$

     RDKit          2D

 12 13  0  0  0  0  0  0  0  0999 V2000
    4.9828    3.4404    0.0000 N   0  0  0  0  0  0  0  0  0  0  0  0
    4.9840    1.9152    0.0000 C   0  0  0  0  0  0  0  0  0  0  0  0
    3.6679    1.1559    0.0000 C   0  0  0  0  0  0  0  0  0  0  0  0
    2.3429    1.9174    0.0000 C   0  0  0  0  0  0  0  0  0  0  0  0
    2.3429    3.4404    0.0000 C   0  0  0  0  0  0  0  0  0  0  0  0
    3.6679    4.2019    0.0000 C   0  0  0  0  0  0  0  0  0  0  0  0
    0.0000    2.6789    0.0000 C   0  0  0  0  0  0  0  0  0  0  0  0
    0.8960    3.9176    0.0000 N   0  0  0  0  0  0  0  0  0  0  0  0
    3.6679    5.7249    0.0000 O   0  0  0  0  0  0  0  0  0  0  0  0
    6.3030    1.1537    0.0000 N   0  0  0  0  0  0  0  0  0  0  0  0
    0.8960    1.4478    0.0000 N   0  0  0  0  0  0  0  0  0  0  0  0
    0.4234    0.0000    0.0000 R#  0  0  0  0  0  0  0  0  0  0  0  0
  1  2  1  0
  2  3  2  0
  3  4  1  0
  4  5  2  0
  5  6  1  0
  1  6  1  0
  7  8  2  0
  5  8  1  0
  6  9  2  0
  2 10  1  0
  4 11  1  0
  7 11  1  0
 11 12  1  0
A   12
R1
M  END
>  <symbol>  (694)
c3G

>  <m_abbr>  (694)
c3G

>  <m_type>  (694)
rna

>  <m_subtype>  (694)
natural

>  <m_RgroupIdx>  (694)
11

>  <m_Rgroups>  (694)
H

$$$$

     RDKit          2D

 15 16  0  0  0  0  0  0  0  0999 V2000
    4.9811    6.1020    0.0000 N   0  0  0  0  0  0  0  0  0  0  0  0
    4.9823    4.5774    0.0000 C   0  0  0  0  0  0  0  0  0  0  0  0
    3.6667    3.8183    0.0000 C   0  0  0  0  0  0  0  0  0  0  0  0
    2.3421    4.5796    0.0000 C   0  0  0  0  0  0  0  0  0  0  0  0
    2.3421    6.1020    0.0000 C   0  0  0  0  0  0  0  0  0  0  0  0
    3.6667    6.8633    0.0000 C   0  0  0  0  0  0  0  0  0  0  0  0
    0.0000    5.3408    0.0000 C   0  0  0  0  0  0  0  0  0  0  0  0
    0.8957    6.5791    0.0000 N   0  0  0  0  0  0  0  0  0  0  0  0
    3.6667    8.3858    0.0000 O   0  0  0  0  0  0  0  0  0  0  0  0
    6.3008    3.8161    0.0000 N   0  0  0  0  0  0  0  0  0  0  0  0
    0.8957    4.1101    0.0000 N   0  0  0  0  0  0  0  0  0  0  0  0
    0.4232    2.6628    0.0000 R#  0  0  0  0  0  0  0  0  0  0  0  0
    3.6679    2.2905    0.0000 C   0  0  0  0  0  0  0  0  0  0  0  0
    4.9917    1.5277    0.0000 C   0  0  0  0  0  0  0  0  0  0  0  0
    4.9929    0.0000    0.0000 C   0  0  0  0  0  0  0  0  0  0  0  0
  1  2  1  0
  2  3  2  0
  3  4  1  0
  4  5  2  0
  5  6  1  0
  1  6  1  0
  7  8  2  0
  5  8  1  0
  6  9  2  0
  2 10  1  0
  4 11  1  0
  7 11  1  0
 11 12  1  0
  3 13  1  0
 13 14  1  0
 14 15  2  0
A   12
R1
M  END
>  <symbol>  (695)
c3allyl3G

>  <m_abbr>  (695)
c3allyl3G

>  <m_type>  (695)
rna

>  <m_subtype>  (695)
natural

>  <m_RgroupIdx>  (695)
11

>  <m_Rgroups>  (695)
H

$$$$

     RDKit          2D

 13 14  0  0  0  0  0  0  0  0999 V2000
    4.9683    3.9182    0.0000 N   0  0  0  0  0  0  0  0  0  0  0  0
    4.9956    2.3955    0.0000 C   0  0  0  0  0  0  0  0  0  0  0  0
    3.6946    1.6105    0.0000 N   0  0  0  0  0  0  0  0  0  0  0  0
    2.3561    2.3481    0.0000 C   0  0  0  0  0  0  0  0  0  0  0  0
    2.3288    3.8709    0.0000 C   0  0  0  0  0  0  0  0  0  0  0  0
    3.6400    4.6560    0.0000 C   0  0  0  0  0  0  0  0  0  0  0  0
    0.0000    3.0675    0.0000 C   0  0  0  0  0  0  0  0  0  0  0  0
    0.8736    4.3221    0.0000 C   0  0  0  0  0  0  0  0  0  0  0  0
    3.6152    6.1788    0.0000 O   0  0  0  0  0  0  0  0  0  0  0  0
    6.3285    1.6587    0.0000 N   0  0  0  0  0  0  0  0  0  0  0  0
    0.9179    1.8527    0.0000 N   0  0  0  0  0  0  0  0  0  0  0  0
    0.3873    0.0000    0.0000 R#  0  0  0  0  0  0  0  0  0  0  0  0
    0.3788    5.7624    0.0000 C   0  0  0  0  0  0  0  0  0  0  0  0
  1  2  1  0
  2  3  2  0
  3  4  1  0
  4  5  2  0
  5  6  1  0
  1  6  1  0
  7  8  2  0
  5  8  1  0
  6  9  2  0
  2 10  1  0
  4 11  1  0
  7 11  1  0
 11 12  1  0
  8 13  1  0
A   12
R1
M  END
>  <symbol>  (696)
c7m7G

>  <m_abbr>  (696)
c7m7G

>  <m_type>  (696)
rna

>  <m_subtype>  (696)
natural

>  <m_RgroupIdx>  (696)
11

>  <m_Rgroups>  (696)
H

$$$$

     RDKit          2D

  9  9  0  0  0  0  0  0  0  0999 V2000
    2.6000    3.7499    0.0000 N   0  0  0  0  0  0  0  0  0  0  0  0
    2.6000    2.2499    0.0000 C   0  0  0  0  0  0  0  0  0  0  0  0
    1.3050    1.5000    0.0000 C   0  0  0  0  0  0  0  0  0  0  0  0
    0.0000    2.2499    0.0000 C   0  0  0  0  0  0  0  0  0  0  0  0
    0.0000    3.7499    0.0000 N   0  0  0  0  0  0  0  0  0  0  0  0
    1.3050    4.4999    0.0000 C   0  0  0  0  0  0  0  0  0  0  0  0
    1.3050    5.9999    0.0000 O   0  0  0  0  0  0  0  0  0  0  0  0
    1.3050    0.0000    0.0000 R#  0  0  0  0  0  0  0  0  0  0  0  0
    3.8991    1.5000    0.0000 O   0  0  0  0  0  0  0  0  0  0  0  0
  1  2  1  0
  2  3  1  0
  3  4  2  0
  4  5  1  0
  5  6  1  0
  1  6  1  0
  6  7  2  0
  3  8  1  0
  2  9  2  0
A    8
R1
M  END
>  <symbol>  (697)
psi

>  <m_abbr>  (697)
psi

>  <m_type>  (697)
rna

>  <m_subtype>  (697)
natural

>  <m_RgroupIdx>  (697)
7

>  <m_Rgroups>  (697)
H

$$$$

     RDKit          2D

 13 14  0  0  0  0  0  0  0  0999 V2000
    4.9813    3.4572    0.0000 N   0  0  0  0  0  0  0  0  0  0  0  0
    4.9813    1.9347    0.0000 C   0  0  0  0  0  0  0  0  0  0  0  0
    3.6668    1.1734    0.0000 N   0  0  0  0  0  0  0  0  0  0  0  0
    2.3422    1.9347    0.0000 C   0  0  0  0  0  0  0  0  0  0  0  0
    2.3422    3.4572    0.0000 C   0  0  0  0  0  0  0  0  0  0  0  0
    3.6668    4.2185    0.0000 C   0  0  0  0  0  0  0  0  0  0  0  0
    0.0000    2.6960    0.0000 C   0  0  0  0  0  0  0  0  0  0  0  0
    0.8787    3.9399    0.0000 C   0  0  0  0  0  0  0  0  0  0  0  0
    3.6668    5.7410    0.0000 O   0  0  0  0  0  0  0  0  0  0  0  0
    6.3084    1.1734    0.0000 N   0  0  0  0  0  0  0  0  0  0  0  0
    0.8958    1.4652    0.0000 N   0  0  0  0  0  0  0  0  0  0  0  0
    0.4201    0.0000    0.0000 R#  0  0  0  0  0  0  0  0  0  0  0  0
    0.4044    5.4056    0.0000 I   0  0  0  0  0  0  0  0  0  0  0  0
  1  2  1  0
  2  3  2  0
  3  4  1  0
  4  5  2  0
  5  6  1  0
  1  6  1  0
  7  8  2  0
  5  8  1  0
  6  9  2  0
  2 10  1  0
  4 11  1  0
  7 11  1  0
 11 12  1  0
  8 13  1  0
A   12
R1
M  END
>  <symbol>  (698)
c7io7G

>  <m_abbr>  (698)
c7io7G

>  <m_type>  (698)
rna

>  <m_subtype>  (698)
natural

>  <m_RgroupIdx>  (698)
11

>  <m_Rgroups>  (698)
H

$$$$

     RDKit          2D

 13 14  0  0  0  0  0  0  0  0999 V2000
    4.9812    3.4573    0.0000 N   0  0  0  0  0  0  0  0  0  0  0  0
    4.9812    1.9348    0.0000 C   0  0  0  0  0  0  0  0  0  0  0  0
    3.6668    1.1735    0.0000 N   0  0  0  0  0  0  0  0  0  0  0  0
    2.3421    1.9348    0.0000 C   0  0  0  0  0  0  0  0  0  0  0  0
    2.3421    3.4573    0.0000 C   0  0  0  0  0  0  0  0  0  0  0  0
    3.6668    4.2186    0.0000 C   0  0  0  0  0  0  0  0  0  0  0  0
    0.0000    2.6960    0.0000 C   0  0  0  0  0  0  0  0  0  0  0  0
    0.8787    3.9400    0.0000 C   0  0  0  0  0  0  0  0  0  0  0  0
    3.6668    5.7411    0.0000 N   0  0  0  0  0  0  0  0  0  0  0  0
    6.3084    1.1735    0.0000 N   0  0  0  0  0  0  0  0  0  0  0  0
    0.8957    1.4653    0.0000 N   0  0  0  0  0  0  0  0  0  0  0  0
    0.4201    0.0000    0.0000 R#  0  0  0  0  0  0  0  0  0  0  0  0
    0.4043    5.4057    0.0000 I   0  0  0  0  0  0  0  0  0  0  0  0
  1  2  2  0
  2  3  1  0
  3  4  2  0
  4  5  1  0
  5  6  2  0
  1  6  1  0
  7  8  2  0
  5  8  1  0
  6  9  1  0
  2 10  1  0
  4 11  1  0
  7 11  1  0
 11 12  1  0
  8 13  1  0
A   12
R1
M  END
>  <symbol>  (699)
c7io7n2A

>  <m_abbr>  (699)
c7io7n2A

>  <m_type>  (699)
rna

>  <m_subtype>  (699)
natural

>  <m_RgroupIdx>  (699)
11

>  <m_Rgroups>  (699)
H

$$$$

     RDKit          2D

 15 16  0  0  0  0  0  0  0  0999 V2000
    5.5796    3.5269    0.0000 N   0  0  0  0  0  0  0  0  0  0  0  0
    5.6132    2.0096    0.0000 C   0  0  0  0  0  0  0  0  0  0  0  0
    4.3201    1.2219    0.0000 N   0  0  0  0  0  0  0  0  0  0  0  0
    2.9832    1.9513    0.0000 C   0  0  0  0  0  0  0  0  0  0  0  0
    2.9496    3.4686    0.0000 C   0  0  0  0  0  0  0  0  0  0  0  0
    4.2528    4.2565    0.0000 C   0  0  0  0  0  0  0  0  0  0  0  0
    0.6322    2.6582    0.0000 C   0  0  0  0  0  0  0  0  0  0  0  0
    1.4976    3.9121    0.0000 C   0  0  0  0  0  0  0  0  0  0  0  0
    4.2217    5.7739    0.0000 N   0  0  0  0  0  0  0  0  0  0  0  0
    1.5521    1.4515    0.0000 N   0  0  0  0  0  0  0  0  0  0  0  0
    1.1087    0.0000    0.0000 R#  0  0  0  0  0  0  0  0  0  0  0  0
    0.9984    5.3454    0.0000 C   0  0  0  0  0  0  0  0  0  0  0  0
    0.4992    6.7787    0.0000 C   0  0  0  0  0  0  0  0  0  0  0  0
    0.0000    8.2119    0.0000 C   0  0  0  0  0  0  0  0  0  0  0  0
    6.9446    1.2809    0.0000 N   0  0  0  0  0  0  0  0  0  0  0  0
  1  2  2  0
  2  3  1  0
  3  4  2  0
  4  5  1  0
  5  6  2  0
  1  6  1  0
  7  8  2  0
  5  8  1  0
  6  9  1  0
  4 10  1  0
  7 10  1  0
 10 11  1  0
  8 12  1  0
 12 13  3  0
 13 14  1  0
  2 15  1  0
A   11
R1
M  END
>  <symbol>  (700)
c7pry7n2A

>  <m_abbr>  (700)
c7pry7n2A

>  <m_type>  (700)
rna

>  <m_subtype>  (700)
natural

>  <m_RgroupIdx>  (700)
10

>  <m_Rgroups>  (700)
H

$$$$

     RDKit          2D

 16 16  0  0  0  0  0  0  0  0999 V2000
   11.8726    3.8087    0.0000 N   0  0  0  0  0  0  0  0  0  0  0  0
   11.8741    2.2857    0.0000 C   0  0  0  0  0  0  0  0  0  0  0  0
   10.5600    1.5229    0.0000 N   0  0  0  0  0  0  0  0  0  0  0  0
    9.2342    2.2831    0.0000 C   0  0  0  0  0  0  0  0  0  0  0  0
    9.2327    3.8061    0.0000 C   0  0  0  0  0  0  0  0  0  0  0  0
   10.5570    4.5689    0.0000 C   0  0  0  0  0  0  0  0  0  0  0  0
   10.5570    6.0919    0.0000 N   0  0  0  0  0  0  0  0  0  0  0  0
   10.5600    0.0000    0.0000 R#  0  0  0  0  0  0  0  0  0  0  0  0
   13.1930    1.5242    0.0000 O   0  0  0  0  0  0  0  0  0  0  0  0
    7.9137    4.5676    0.0000 C   0  0  0  0  0  0  0  0  0  0  0  0
    6.5948    3.8061    0.0000 C   0  0  0  0  0  0  0  0  0  0  0  0
    5.2758    4.5676    0.0000 C   0  0  0  0  0  0  0  0  0  0  0  0
    3.9569    3.8061    0.0000 C   0  0  0  0  0  0  0  0  0  0  0  0
    2.6379    4.5676    0.0000 C   0  0  0  0  0  0  0  0  0  0  0  0
    1.3190    3.8061    0.0000 C   0  0  0  0  0  0  0  0  0  0  0  0
    0.0000    4.5676    0.0000 N   0  0  0  0  0  0  0  0  0  0  0  0
  1  2  1  0
  2  3  1  0
  3  4  1  0
  4  5  2  0
  5  6  1  0
  1  6  2  0
  6  7  1  0
  3  8  1  0
  2  9  2  0
  5 10  1  0
 10 11  1  0
 11 12  1  0
 12 13  1  0
 13 14  1  0
 14 15  1  0
 15 16  1  0
A    8
R1
M  END
>  <symbol>  (701)
nC65C

>  <m_abbr>  (701)
nC65C

>  <m_type>  (701)
rna

>  <m_subtype>  (701)
natural

>  <m_RgroupIdx>  (701)
7

>  <m_Rgroups>  (701)
H

$$$$

     RDKit          2D

 12 12  0  0  0  0  0  0  0  0999 V2000
    5.3164    3.8234    0.0000 N   0  0  0  0  0  0  0  0  0  0  0  0
    5.3351    2.3005    0.0000 C   0  0  0  0  0  0  0  0  0  0  0  0
    4.0297    1.5229    0.0000 N   0  0  0  0  0  0  0  0  0  0  0  0
    2.6955    2.2680    0.0000 C   0  0  0  0  0  0  0  0  0  0  0  0
    2.6767    3.7909    0.0000 C   0  0  0  0  0  0  0  0  0  0  0  0
    3.9923    4.5687    0.0000 C   0  0  0  0  0  0  0  0  0  0  0  0
    3.9761    6.0916    0.0000 O   0  0  0  0  0  0  0  0  0  0  0  0
    4.0510    0.0000    0.0000 R#  0  0  0  0  0  0  0  0  0  0  0  0
    6.6638    1.5561    0.0000 O   0  0  0  0  0  0  0  0  0  0  0  0
    1.3493    4.5375    0.0000 C   0  0  0  0  0  0  0  0  0  0  0  0
    1.3321    6.0604    0.0000 C   0  0  0  0  0  0  0  0  0  0  0  0
    0.0000    6.8095    0.0000 Br  0  0  0  0  0  0  0  0  0  0  0  0
  1  2  1  0
  2  3  1  0
  3  4  1  0
  4  5  2  0
  5  6  1  0
  1  6  1  0
  6  7  2  0
  3  8  1  0
  2  9  2  0
  5 10  1  0
 10 11  2  0
 11 12  1  0
A    8
R1
M  END
>  <symbol>  (702)
brvinyl5U

>  <m_abbr>  (702)
brvinyl5U

>  <m_type>  (702)
rna

>  <m_subtype>  (702)
natural

>  <m_RgroupIdx>  (702)
7

>  <m_Rgroups>  (702)
H

$$$$

     RDKit          2D

 12 12  0  0  0  0  0  0  0  0999 V2000
    5.2820    3.8234    0.0000 N   0  0  0  0  0  0  0  0  0  0  0  0
    5.3007    2.3005    0.0000 C   0  0  0  0  0  0  0  0  0  0  0  0
    3.9953    1.5229    0.0000 N   0  0  0  0  0  0  0  0  0  0  0  0
    2.6611    2.2680    0.0000 C   0  0  0  0  0  0  0  0  0  0  0  0
    2.6424    3.7909    0.0000 C   0  0  0  0  0  0  0  0  0  0  0  0
    3.9579    4.5686    0.0000 C   0  0  0  0  0  0  0  0  0  0  0  0
    3.9417    6.0915    0.0000 O   0  0  0  0  0  0  0  0  0  0  0  0
    4.0166    0.0000    0.0000 R#  0  0  0  0  0  0  0  0  0  0  0  0
    6.6294    1.5561    0.0000 O   0  0  0  0  0  0  0  0  0  0  0  0
    1.3149    4.5375    0.0000 C   0  0  0  0  0  0  0  0  0  0  0  0
    1.2977    6.0604    0.0000 C   0  0  0  0  0  0  0  0  0  0  0  0
    0.0000    3.7584    0.0000 C   0  0  0  0  0  0  0  0  0  0  0  0
  1  2  1  0
  2  3  1  0
  3  4  1  0
  4  5  2  0
  5  6  1  0
  1  6  1  0
  6  7  2  0
  3  8  1  0
  2  9  2  0
  5 10  1  0
 10 11  1  0
 10 12  1  0
A    8
R1
M  END
>  <symbol>  (703)
ipr5U

>  <m_abbr>  (703)
ipr5U

>  <m_type>  (703)
rna

>  <m_subtype>  (703)
natural

>  <m_RgroupIdx>  (703)
7

>  <m_Rgroups>  (703)
H

$$$$

     RDKit          2D

 11 11  0  0  0  0  0  0  0  0999 V2000
    5.2595    3.7982    0.0000 N   0  0  0  0  0  0  0  0  0  0  0  0
    5.2610    2.2805    0.0000 C   0  0  0  0  0  0  0  0  0  0  0  0
    3.9500    1.5177    0.0000 N   0  0  0  0  0  0  0  0  0  0  0  0
    2.6303    2.2779    0.0000 C   0  0  0  0  0  0  0  0  0  0  0  0
    2.6288    3.7956    0.0000 C   0  0  0  0  0  0  0  0  0  0  0  0
    3.9485    4.5558    0.0000 C   0  0  0  0  0  0  0  0  0  0  0  0
    3.9485    6.0735    0.0000 O   0  0  0  0  0  0  0  0  0  0  0  0
    3.9500    0.0000    0.0000 R#  0  0  0  0  0  0  0  0  0  0  0  0
    6.5754    1.5217    0.0000 O   0  0  0  0  0  0  0  0  0  0  0  0
    1.3144    4.5545    0.0000 C   0  0  0  0  0  0  0  0  0  0  0  0
    0.0000    3.7956    0.0000 C   0  0  0  0  0  0  0  0  0  0  0  0
  1  2  1  0
  2  3  1  0
  3  4  1  0
  4  5  2  0
  5  6  1  0
  1  6  1  0
  6  7  2  0
  3  8  1  0
  2  9  2  0
  5 10  1  0
 10 11  1  0
A    8
R1
M  END
>  <symbol>  (704)
e5U

>  <m_abbr>  (704)
e5U

>  <m_type>  (704)
rna

>  <m_subtype>  (704)
natural

>  <m_RgroupIdx>  (704)
7

>  <m_Rgroups>  (704)
H

$$$$

     RDKit          2D

 13 14  0  0  0  0  0  0  0  0999 V2000
    5.0477    3.4821    0.0000 N   0  0  0  0  0  0  0  0  0  0  0  0
    5.0662    1.9645    0.0000 C   0  0  0  0  0  0  0  0  0  0  0  0
    3.7652    1.1898    0.0000 N   0  0  0  0  0  0  0  0  0  0  0  0
    2.4357    1.9325    0.0000 C   0  0  0  0  0  0  0  0  0  0  0  0
    2.4172    3.4501    0.0000 C   0  0  0  0  0  0  0  0  0  0  0  0
    3.7283    4.2250    0.0000 C   0  0  0  0  0  0  0  0  0  0  0  0
    0.0919    2.6629    0.0000 C   0  0  0  0  0  0  0  0  0  0  0  0
    0.9697    3.9081    0.0000 C   0  0  0  0  0  0  0  0  0  0  0  0
    3.7123    5.7426    0.0000 N   0  0  0  0  0  0  0  0  0  0  0  0
    0.9997    1.4470    0.0000 N   0  0  0  0  0  0  0  0  0  0  0  0
    0.5418    0.0000    0.0000 R#  0  0  0  0  0  0  0  0  0  0  0  0
    0.4849    5.3463    0.0000 C   0  0  0  0  0  0  0  0  0  0  0  0
    0.0000    6.7844    0.0000 N   0  0  0  0  0  0  0  0  0  0  0  0
  1  2  2  0
  2  3  1  0
  3  4  2  0
  4  5  1  0
  5  6  2  0
  1  6  1  0
  7  8  2  0
  5  8  1  0
  6  9  1  0
  4 10  1  0
  7 10  1  0
 10 11  1  0
  8 12  1  0
 12 13  3  0
A   11
R1
M  END
>  <symbol>  (705)
c7cn7A

>  <m_abbr>  (705)
c7cn7A

>  <m_type>  (705)
rna

>  <m_subtype>  (705)
natural

>  <m_RgroupIdx>  (705)
10

>  <m_Rgroups>  (705)
H

$$$$

     RDKit          2D

 10 10  0  0  0  0  0  0  0  0999 V2000
    3.9451    3.7943    0.0000 N   0  0  0  0  0  0  0  0  0  0  0  0
    3.9451    2.2766    0.0000 C   0  0  0  0  0  0  0  0  0  0  0  0
    2.6348    1.5177    0.0000 N   0  0  0  0  0  0  0  0  0  0  0  0
    1.3144    2.2766    0.0000 C   0  0  0  0  0  0  0  0  0  0  0  0
    1.3144    3.7943    0.0000 C   0  0  0  0  0  0  0  0  0  0  0  0
    2.6348    4.5531    0.0000 C   0  0  0  0  0  0  0  0  0  0  0  0
    2.6348    6.0709    0.0000 N   0  0  0  0  0  0  0  0  0  0  0  0
    2.6348    0.0000    0.0000 R#  0  0  0  0  0  0  0  0  0  0  0  0
    5.2594    1.5177    0.0000 O   0  0  0  0  0  0  0  0  0  0  0  0
    0.0000    4.5531    0.0000 I   0  0  0  0  0  0  0  0  0  0  0  0
  1  2  1  0
  2  3  1  0
  3  4  1  0
  4  5  2  0
  5  6  1  0
  1  6  2  0
  6  7  1  0
  3  8  1  0
  2  9  2  0
  5 10  1  0
A    8
R1
M  END
>  <symbol>  (706)
io5C

>  <m_abbr>  (706)
io5C

>  <m_type>  (706)
rna

>  <m_subtype>  (706)
natural

>  <m_RgroupIdx>  (706)
7

>  <m_Rgroups>  (706)
H

$$$$

     RDKit          2D

 15 16  0  0  0  0  0  0  0  0999 V2000
    7.5140    1.8964    0.0000 C   0  0  0  0  0  0  0  0  0  0  0  0
    8.8168    1.1434    0.0000 C   0  0  0  0  0  0  0  0  0  0  0  0
   10.1156    1.8964    0.0000 N   0  0  0  0  0  0  0  0  0  0  0  0
    4.9124    3.3983    0.0000 N   0  0  0  0  0  0  0  0  0  0  0  0
    4.9124    1.8964    0.0000 C   0  0  0  0  0  0  0  0  0  0  0  0
    3.6136    1.1434    0.0000 N   0  0  0  0  0  0  0  0  0  0  0  0
    2.3108    1.8964    0.0000 C   0  0  0  0  0  0  0  0  0  0  0  0
    2.3108    3.3983    0.0000 C   0  0  0  0  0  0  0  0  0  0  0  0
    3.6136    4.1473    0.0000 C   0  0  0  0  0  0  0  0  0  0  0  0
    0.8845    1.4302    0.0000 N   0  0  0  0  0  0  0  0  0  0  0  0
    0.0000    2.6453    0.0000 C   0  0  0  0  0  0  0  0  0  0  0  0
    0.8845    3.8605    0.0000 N   0  0  0  0  0  0  0  0  0  0  0  0
    3.6136    5.6494    0.0000 N   0  0  0  0  0  0  0  0  0  0  0  0
    6.2152    1.1434    0.0000 N   0  0  0  0  0  0  0  0  0  0  0  0
    0.4183    0.0000    0.0000 R#  0  0  0  0  0  0  0  0  0  0  0  0
  1  2  1  0
  2  3  1  0
  4  5  2  0
  5  6  1  0
  6  7  2  0
  7  8  1  0
  8  9  2  0
  4  9  1  0
  7 10  1  0
 10 11  1  0
 11 12  2  0
  8 12  1  0
  9 13  1  0
  5 14  1  0
 10 15  1  0
  1 14  1  0
A   15
R1
M  END
>  <symbol>  (707)
nen2A

>  <m_abbr>  (707)
nen2A

>  <m_type>  (707)
rna

>  <m_subtype>  (707)
natural

>  <m_RgroupIdx>  (707)
14

>  <m_Rgroups>  (707)
H

$$$$

     RDKit          2D

 12 12  0  0  0  0  0  0  0  0999 V2000
    6.5738    3.7943    0.0000 N   0  0  0  0  0  0  0  0  0  0  0  0
    6.5738    2.2766    0.0000 C   0  0  0  0  0  0  0  0  0  0  0  0
    5.2635    1.5177    0.0000 N   0  0  0  0  0  0  0  0  0  0  0  0
    3.9446    2.2766    0.0000 N   0  0  0  0  0  0  0  0  0  0  0  0
    3.9431    3.7943    0.0000 C   0  0  0  0  0  0  0  0  0  0  0  0
    5.2635    4.5531    0.0000 C   0  0  0  0  0  0  0  0  0  0  0  0
    5.2635    6.0709    0.0000 O   0  0  0  0  0  0  0  0  0  0  0  0
    5.2635    0.0000    0.0000 R#  0  0  0  0  0  0  0  0  0  0  0  0
    7.8882    1.5177    0.0000 O   0  0  0  0  0  0  0  0  0  0  0  0
    2.6287    4.5531    0.0000 C   0  0  0  0  0  0  0  0  0  0  0  0
    1.3143    5.3120    0.0000 C   0  0  0  0  0  0  0  0  0  0  0  0
    0.0000    6.0709    0.0000 C   0  0  0  0  0  0  0  0  0  0  0  0
  1  2  1  0
  2  3  1  0
  3  4  1  0
  4  5  2  0
  5  6  1  0
  1  6  1  0
  6  7  2  0
  3  8  1  0
  2  9  2  0
  5 10  1  0
 10 11  3  0
 11 12  1  0
A    8
R1
M  END
>  <symbol>  (708)
n6pry5U

>  <m_abbr>  (708)
n6pry5U

>  <m_type>  (708)
rna

>  <m_subtype>  (708)
natural

>  <m_RgroupIdx>  (708)
7

>  <m_Rgroups>  (708)
H

$$$$

     RDKit          2D

 12 13  0  0  0  0  0  0  0  0999 V2000
    4.9732    3.4942    0.0000 N   0  0  0  0  0  0  0  0  0  0  0  0
    4.9917    1.9713    0.0000 C   0  0  0  0  0  0  0  0  0  0  0  0
    3.6862    1.1939    0.0000 N   0  0  0  0  0  0  0  0  0  0  0  0
    2.3520    1.9392    0.0000 C   0  0  0  0  0  0  0  0  0  0  0  0
    2.3335    3.4621    0.0000 C   0  0  0  0  0  0  0  0  0  0  0  0
    3.6491    4.2396    0.0000 C   0  0  0  0  0  0  0  0  0  0  0  0
    0.0000    2.6721    0.0000 C   0  0  0  0  0  0  0  0  0  0  0  0
    0.8809    3.9217    0.0000 C   0  0  0  0  0  0  0  0  0  0  0  0
    3.6331    5.7626    0.0000 N   0  0  0  0  0  0  0  0  0  0  0  0
    0.9110    1.4520    0.0000 N   0  0  0  0  0  0  0  0  0  0  0  0
    0.4516    0.0000    0.0000 R#  0  0  0  0  0  0  0  0  0  0  0  0
    0.3944    5.3648    0.0000 I   0  0  0  0  0  0  0  0  0  0  0  0
  1  2  2  0
  2  3  1  0
  3  4  2  0
  4  5  1  0
  5  6  2  0
  1  6  1  0
  7  8  2  0
  5  8  1  0
  6  9  1  0
  4 10  1  0
  7 10  1  0
 10 11  1  0
  8 12  1  0
A   11
R1
M  END
>  <symbol>  (709)
c7io7A

>  <m_abbr>  (709)
c7io7A

>  <m_type>  (709)
rna

>  <m_subtype>  (709)
natural

>  <m_RgroupIdx>  (709)
10

>  <m_Rgroups>  (709)
H

$$$$

     RDKit          2D

 14 15  0  0  0  0  0  0  0  0999 V2000
    5.5796    3.5269    0.0000 N   0  0  0  0  0  0  0  0  0  0  0  0
    5.6132    2.0096    0.0000 C   0  0  0  0  0  0  0  0  0  0  0  0
    4.3201    1.2219    0.0000 N   0  0  0  0  0  0  0  0  0  0  0  0
    2.9832    1.9513    0.0000 C   0  0  0  0  0  0  0  0  0  0  0  0
    2.9496    3.4686    0.0000 C   0  0  0  0  0  0  0  0  0  0  0  0
    4.2528    4.2565    0.0000 C   0  0  0  0  0  0  0  0  0  0  0  0
    0.6322    2.6582    0.0000 C   0  0  0  0  0  0  0  0  0  0  0  0
    1.4976    3.9121    0.0000 C   0  0  0  0  0  0  0  0  0  0  0  0
    4.2217    5.7739    0.0000 N   0  0  0  0  0  0  0  0  0  0  0  0
    1.5521    1.4515    0.0000 N   0  0  0  0  0  0  0  0  0  0  0  0
    1.1087    0.0000    0.0000 R#  0  0  0  0  0  0  0  0  0  0  0  0
    0.9984    5.3454    0.0000 C   0  0  0  0  0  0  0  0  0  0  0  0
    0.4992    6.7787    0.0000 C   0  0  0  0  0  0  0  0  0  0  0  0
    0.0000    8.2119    0.0000 C   0  0  0  0  0  0  0  0  0  0  0  0
  1  2  2  0
  2  3  1  0
  3  4  2  0
  4  5  1  0
  5  6  2  0
  1  6  1  0
  7  8  2  0
  5  8  1  0
  6  9  1  0
  4 10  1  0
  7 10  1  0
 10 11  1  0
  8 12  1  0
 12 13  3  0
 13 14  1  0
A   11
R1
M  END
>  <symbol>  (710)
n7pry7A

>  <m_abbr>  (710)
n7pry7A

>  <m_type>  (710)
rna

>  <m_subtype>  (710)
natural

>  <m_RgroupIdx>  (710)
10

>  <m_Rgroups>  (710)
H

$$$$

     RDKit          2D

 20 22  0  0  0  0  0  0  0  0999 V2000
    4.9816    4.1249    0.0000 N   0  0  0  0  0  0  0  0  0  0  0  0
    4.9816    2.6019    0.0000 C   0  0  0  0  0  0  0  0  0  0  0  0
    3.6626    1.8404    0.0000 N   0  0  0  0  0  0  0  0  0  0  0  0
    2.3437    2.6019    0.0000 C   0  0  0  0  0  0  0  0  0  0  0  0
    2.3437    4.1249    0.0000 C   0  0  0  0  0  0  0  0  0  0  0  0
    3.6626    4.8864    0.0000 C   0  0  0  0  0  0  0  0  0  0  0  0
    3.6626    6.4094    0.0000 N   0  0  0  0  0  0  0  0  0  0  0  0
    0.8952    2.1312    0.0000 N   0  0  0  0  0  0  0  0  0  0  0  0
    0.0000    3.3634    0.0000 C   0  0  0  0  0  0  0  0  0  0  0  0
    0.8952    4.5955    0.0000 N   0  0  0  0  0  0  0  0  0  0  0  0
    0.4246    0.6828    0.0000 R#  0  0  0  0  0  0  0  0  0  0  0  0
    6.3005    1.8404    0.0000 N   0  0  0  0  0  0  0  0  0  0  0  0
    7.6195    2.6019    0.0000 C   0  0  0  0  0  0  0  0  0  0  0  0
    8.9384    1.8404    0.0000 C   0  0  0  0  0  0  0  0  0  0  0  0
   10.2574    2.6019    0.0000 C   0  0  0  0  0  0  0  0  0  0  0  0
   11.5810    1.8377    0.0000 N   0  0  0  0  0  0  0  0  0  0  0  0
   11.7407    0.3178    0.0000 C   0  0  0  0  0  0  0  0  0  0  0  0
   13.2356    0.0000    0.0000 N   0  0  0  0  0  0  0  0  0  0  0  0
   13.9998    1.3236    0.0000 C   0  0  0  0  0  0  0  0  0  0  0  0
   12.9771    2.4593    0.0000 C   0  0  0  0  0  0  0  0  0  0  0  0
  1  2  2  0
  2  3  1  0
  3  4  2  0
  4  5  1  0
  5  6  2  0
  6  7  1  0
  1  6  1  0
  4  8  1  0
  8  9  1  0
  9 10  2  0
  5 10  1  0
  8 11  1  0
  2 12  1  0
 12 13  1  0
 13 14  1  0
 15 14  1  0
 15 16  1  0
 16 17  1  0
 17 18  2  0
 18 19  1  0
 19 20  2  0
 20 16  1  0
A   11
R1
M  END
>  <symbol>  (711)
imprn2A

>  <m_abbr>  (711)
imprn2A

>  <m_type>  (711)
rna

>  <m_subtype>  (711)
natural

>  <m_RgroupIdx>  (711)
10

>  <m_Rgroups>  (711)
H

$$$$

     RDKit          2D

 19 21  0  0  0  0  0  0  0  0999 V2000
    4.9655    3.4282    0.0000 N   0  0  0  0  0  0  0  0  0  0  0  0
    4.9655    1.9105    0.0000 C   0  0  0  0  0  0  0  0  0  0  0  0
    3.6537    1.1491    0.0000 N   0  0  0  0  0  0  0  0  0  0  0  0
    2.3348    1.9105    0.0000 C   0  0  0  0  0  0  0  0  0  0  0  0
    2.3348    3.4282    0.0000 C   0  0  0  0  0  0  0  0  0  0  0  0
    3.6552    4.1871    0.0000 C   0  0  0  0  0  0  0  0  0  0  0  0
    0.0000    2.6694    0.0000 C   0  0  0  0  0  0  0  0  0  0  0  0
    0.8929    3.9038    0.0000 N   0  0  0  0  0  0  0  0  0  0  0  0
    3.6552    5.7048    0.0000 O   0  0  0  0  0  0  0  0  0  0  0  0
    6.2798    1.1517    0.0000 N   0  0  0  0  0  0  0  0  0  0  0  0
    0.8929    1.4426    0.0000 N   0  0  0  0  0  0  0  0  0  0  0  0
    0.4214    0.0000    0.0000 R#  0  0  0  0  0  0  0  0  0  0  0  0
    7.5942    1.9105    0.0000 C   0  0  0  0  0  0  0  0  0  0  0  0
    8.9086    1.1517    0.0000 C   0  0  0  0  0  0  0  0  0  0  0  0
   10.2230    1.9105    0.0000 C   0  0  0  0  0  0  0  0  0  0  0  0
   11.6087    1.2916    0.0000 N   0  0  0  0  0  0  0  0  0  0  0  0
   12.6243    2.4199    0.0000 C   0  0  0  0  0  0  0  0  0  0  0  0
   11.8676    3.7320    0.0000 N   0  0  0  0  0  0  0  0  0  0  0  0
   10.3793    3.4147    0.0000 C   0  0  0  0  0  0  0  0  0  0  0  0
  1  2  1  0
  2  3  2  0
  3  4  1  0
  4  5  2  0
  5  6  1  0
  1  6  1  0
  7  8  2  0
  5  8  1  0
  6  9  2  0
  2 10  1  0
  4 11  1  0
  7 11  1  0
 11 12  1  0
 10 13  1  0
 13 14  1  0
 15 16  1  0
 16 17  2  0
 17 18  1  0
 15 19  2  0
 14 15  1  0
 18 19  1  0
A   12
R1
M  END
>  <symbol>  (712)
4imen2G

>  <m_abbr>  (712)
4imen2G

>  <m_type>  (712)
rna

>  <m_subtype>  (712)
natural

>  <m_RgroupIdx>  (712)
11

>  <m_Rgroups>  (712)
H

$$$$

     RDKit          2D

 20 22  0  0  0  0  0  0  0  0999 V2000
    4.9655    4.1015    0.0000 N   0  0  0  0  0  0  0  0  0  0  0  0
    4.9655    2.5838    0.0000 C   0  0  0  0  0  0  0  0  0  0  0  0
    3.6537    1.8223    0.0000 N   0  0  0  0  0  0  0  0  0  0  0  0
    2.3348    2.5838    0.0000 C   0  0  0  0  0  0  0  0  0  0  0  0
    2.3348    4.1015    0.0000 C   0  0  0  0  0  0  0  0  0  0  0  0
    3.6552    4.8603    0.0000 C   0  0  0  0  0  0  0  0  0  0  0  0
    0.0000    3.3426    0.0000 C   0  0  0  0  0  0  0  0  0  0  0  0
    0.8929    4.5770    0.0000 N   0  0  0  0  0  0  0  0  0  0  0  0
    3.6552    6.3780    0.0000 O   0  0  0  0  0  0  0  0  0  0  0  0
    6.2798    1.8249    0.0000 N   0  0  0  0  0  0  0  0  0  0  0  0
    0.8929    2.1158    0.0000 N   0  0  0  0  0  0  0  0  0  0  0  0
    0.4214    0.6732    0.0000 R#  0  0  0  0  0  0  0  0  0  0  0  0
   11.5373    1.8249    0.0000 N   0  0  0  0  0  0  0  0  0  0  0  0
   11.6942    0.3153    0.0000 C   0  0  0  0  0  0  0  0  0  0  0  0
   13.1791    0.0000    0.0000 N   0  0  0  0  0  0  0  0  0  0  0  0
   13.9371    1.3113    0.0000 C   0  0  0  0  0  0  0  0  0  0  0  0
   12.9182    2.4416    0.0000 C   0  0  0  0  0  0  0  0  0  0  0  0
    7.5942    2.5838    0.0000 C   0  0  0  0  0  0  0  0  0  0  0  0
    8.9086    1.8249    0.0000 C   0  0  0  0  0  0  0  0  0  0  0  0
   10.2230    2.5838    0.0000 C   0  0  0  0  0  0  0  0  0  0  0  0
  1  2  1  0
  2  3  2  0
  3  4  1  0
  4  5  2  0
  5  6  1  0
  1  6  1  0
  7  8  2  0
  5  8  1  0
  6  9  2  0
  2 10  1  0
  4 11  1  0
  7 11  1  0
 11 12  1  0
 13 14  1  0
 14 15  2  0
 15 16  1  0
 16 17  2  0
 13 17  1  0
 10 18  1  0
 18 19  1  0
 19 20  1  0
 13 20  1  0
A   12
R1
M  END
>  <symbol>  (713)
impr2G

>  <m_abbr>  (713)
impr2G

>  <m_type>  (713)
rna

>  <m_subtype>  (713)
natural

>  <m_RgroupIdx>  (713)
11

>  <m_Rgroups>  (713)
H

$$$$

     RDKit          2D

 20 22  0  0  0  0  0  0  0  0999 V2000
    4.9541    3.4915    0.0000 N   0  0  0  0  0  0  0  0  0  0  0  0
    4.9758    1.9739    0.0000 C   0  0  0  0  0  0  0  0  0  0  0  0
    3.6764    1.1964    0.0000 N   0  0  0  0  0  0  0  0  0  0  0  0
    2.3453    1.9364    0.0000 C   0  0  0  0  0  0  0  0  0  0  0  0
    2.3237    3.4539    0.0000 C   0  0  0  0  0  0  0  0  0  0  0  0
    3.6332    4.2316    0.0000 C   0  0  0  0  0  0  0  0  0  0  0  0
    0.0000    2.6619    0.0000 C   0  0  0  0  0  0  0  0  0  0  0  0
    0.8753    3.9089    0.0000 N   0  0  0  0  0  0  0  0  0  0  0  0
    3.6141    5.7491    0.0000 N   0  0  0  0  0  0  0  0  0  0  0  0
    0.9103    1.4479    0.0000 N   0  0  0  0  0  0  0  0  0  0  0  0
    0.4555    0.0000    0.0000 R#  0  0  0  0  0  0  0  0  0  0  0  0
    6.3013    1.2347    0.0000 N   0  0  0  0  0  0  0  0  0  0  0  0
    4.9188    6.5245    0.0000 C   0  0  0  0  0  0  0  0  0  0  0  0
    6.2426    5.7822    0.0000 C   0  0  0  0  0  0  0  0  0  0  0  0
    7.5473    6.5576    0.0000 C   0  0  0  0  0  0  0  0  0  0  0  0
    8.8711    5.8153    0.0000 N   0  0  0  0  0  0  0  0  0  0  0  0
    9.0491    4.3052    0.0000 C   0  0  0  0  0  0  0  0  0  0  0  0
   10.5377    4.0099    0.0000 N   0  0  0  0  0  0  0  0  0  0  0  0
   11.2782    5.3348    0.0000 C   0  0  0  0  0  0  0  0  0  0  0  0
   10.2461    6.4484    0.0000 C   0  0  0  0  0  0  0  0  0  0  0  0
  1  2  2  0
  2  3  1  0
  3  4  2  0
  4  5  1  0
  5  6  2  0
  1  6  1  0
  7  8  2  0
  5  8  1  0
  6  9  1  0
  4 10  1  0
  7 10  1  0
 10 11  1  0
  2 12  1  0
  9 13  1  0
 13 14  1  0
 14 15  1  0
 15 16  1  0
 16 17  1  0
 17 18  2  0
 18 19  1  0
 19 20  2  0
 16 20  1  0
A   11
R1
M  END
>  <symbol>  (714)
impr6n2A

>  <m_abbr>  (714)
impr6n2A

>  <m_type>  (714)
rna

>  <m_subtype>  (714)
natural

>  <m_RgroupIdx>  (714)
10

>  <m_Rgroups>  (714)
H

$$$$

     RDKit          2D

 18 20  0  0  0  0  0  0  0  0999 V2000
    5.1683    2.4379    0.0000 N   0  0  0  0  0  0  0  0  0  0  0  0
    4.8582    0.9468    0.0000 C   0  0  0  0  0  0  0  0  0  0  0  0
    3.4159    0.4689    0.0000 N   0  0  0  0  0  0  0  0  0  0  0  0
    2.2736    1.4842    0.0000 C   0  0  0  0  0  0  0  0  0  0  0  0
    2.5837    2.9753    0.0000 C   0  0  0  0  0  0  0  0  0  0  0  0
    4.0360    3.4511    0.0000 C   0  0  0  0  0  0  0  0  0  0  0  0
    0.1349    2.7067    0.0000 C   0  0  0  0  0  0  0  0  0  0  0  0
    1.2643    3.7371    0.0000 N   0  0  0  0  0  0  0  0  0  0  0  0
    4.3485    4.9417    0.0000 N   0  0  0  0  0  0  0  0  0  0  0  0
    0.7615    1.3190    0.0000 N   0  0  0  0  0  0  0  0  0  0  0  0
    0.0000    0.0000    0.0000 R#  0  0  0  0  0  0  0  0  0  0  0  0
    5.7956    5.4164    0.0000 C   0  0  0  0  0  0  0  0  0  0  0  0
    6.9303    4.4004    0.0000 C   0  0  0  0  0  0  0  0  0  0  0  0
    8.3774    4.8750    0.0000 C   0  0  0  0  0  0  0  0  0  0  0  0
    9.6114    3.9815    0.0000 N   0  0  0  0  0  0  0  0  0  0  0  0
   10.8420    4.8783    0.0000 C   0  0  0  0  0  0  0  0  0  0  0  0
   10.3685    6.3258    0.0000 N   0  0  0  0  0  0  0  0  0  0  0  0
    8.8409    6.3207    0.0000 C   0  0  0  0  0  0  0  0  0  0  0  0
  1  2  2  0
  2  3  1  0
  3  4  2  0
  4  5  1  0
  5  6  2  0
  1  6  1  0
  7  8  2  0
  5  8  1  0
  6  9  1  0
  4 10  1  0
  7 10  1  0
 10 11  1  0
  9 12  1  0
 12 13  1  0
 13 14  1  0
 14 15  1  0
 15 16  2  0
 16 17  1  0
 14 18  2  0
 17 18  1  0
A   11
R1
M  END
>  <symbol>  (715)
4ime6A

>  <m_abbr>  (715)
4ime6A

>  <m_type>  (715)
rna

>  <m_subtype>  (715)
natural

>  <m_RgroupIdx>  (715)
10

>  <m_Rgroups>  (715)
H

$$$$

     RDKit          2D

 16 17  0  0  0  0  0  0  0  0999 V2000
    2.3054    6.8614    0.0000 C   0  0  0  0  0  0  0  0  0  0  0  0
    2.3054    5.3633    0.0000 C   0  0  0  0  0  0  0  0  0  0  0  0
    3.7241    4.5158    0.0000 N   0  0  0  0  0  0  0  0  0  0  0  0
    5.0120    5.3120    0.0000 C   0  0  0  0  0  0  0  0  0  0  0  0
    4.9685    6.8290    0.0000 N   0  0  0  0  0  0  0  0  0  0  0  0
    3.6370    7.5474    0.0000 C   0  0  0  0  0  0  0  0  0  0  0  0
    3.6370    9.0652    0.0000 O   0  0  0  0  0  0  0  0  0  0  0  0
    6.3264    4.5531    0.0000 N   0  0  0  0  0  0  0  0  0  0  0  0
    6.3264    3.0354    0.0000 C   0  0  0  0  0  0  0  0  0  0  0  0
    7.6408    2.2765    0.0000 C   0  0  0  0  0  0  0  0  0  0  0  0
    7.6408    0.7588    0.0000 C   0  0  0  0  0  0  0  0  0  0  0  0
    8.9552    0.0000    0.0000 N   0  0  0  0  0  0  0  0  0  0  0  0
    0.8806    7.3243    0.0000 N   0  0  0  0  0  0  0  0  0  0  0  0
    0.0000    6.1123    0.0000 C   0  0  0  0  0  0  0  0  0  0  0  0
    0.8806    4.9004    0.0000 N   0  0  0  0  0  0  0  0  0  0  0  0
    0.4100    3.4519    0.0000 R#  0  0  0  0  0  0  0  0  0  0  0  0
  2  1  2  0
  2  3  1  0
  3  4  2  0
  4  5  1  0
  5  6  1  0
  1  6  1  0
  6  7  2  0
  4  8  1  0
  8  9  1  0
  9 10  1  0
 10 11  1  0
 11 12  1  0
  1 13  1  0
 13 14  2  0
 14 15  1  0
 15  2  1  0
 15 16  1  0
A   16
R1
M  END
>  <symbol>  (716)
npr2G

>  <m_abbr>  (716)
npr2G

>  <m_type>  (716)
rna

>  <m_subtype>  (716)
natural

>  <m_RgroupIdx>  (716)
15

>  <m_Rgroups>  (716)
H

$$$$

     RDKit          2D

 17 17  0  0  0  0  0  0  0  0999 V2000
   13.1961    3.8088    0.0000 N   0  0  0  0  0  0  0  0  0  0  0  0
   13.1976    2.2858    0.0000 C   0  0  0  0  0  0  0  0  0  0  0  0
   11.8835    1.5230    0.0000 N   0  0  0  0  0  0  0  0  0  0  0  0
   10.5577    2.2832    0.0000 C   0  0  0  0  0  0  0  0  0  0  0  0
   10.5562    3.8062    0.0000 C   0  0  0  0  0  0  0  0  0  0  0  0
   11.8805    4.5690    0.0000 C   0  0  0  0  0  0  0  0  0  0  0  0
   11.8805    6.0920    0.0000 O   0  0  0  0  0  0  0  0  0  0  0  0
   11.8835    0.0000    0.0000 R#  0  0  0  0  0  0  0  0  0  0  0  0
   14.5166    1.5243    0.0000 O   0  0  0  0  0  0  0  0  0  0  0  0
    9.2373    4.5677    0.0000 C   0  0  0  0  0  0  0  0  0  0  0  0
    7.9183    3.8062    0.0000 C   0  0  0  0  0  0  0  0  0  0  0  0
    6.5994    4.5677    0.0000 C   0  0  0  0  0  0  0  0  0  0  0  0
    5.2804    3.8062    0.0000 C   0  0  0  0  0  0  0  0  0  0  0  0
    3.9615    4.5677    0.0000 C   0  0  0  0  0  0  0  0  0  0  0  0
    2.6425    3.8062    0.0000 C   0  0  0  0  0  0  0  0  0  0  0  0
    1.3235    4.5677    0.0000 N   0  0  0  0  0  0  0  0  0  0  0  0
    0.0000    3.8035    0.0000 R#  0  0  0  0  0  0  0  0  0  0  0  0
  1  2  1  0
  2  3  1  0
  3  4  1  0
  4  5  2  0
  5  6  1  0
  1  6  1  0
  6  7  2  0
  3  8  1  0
  2  9  2  0
  5 10  1  0
 10 11  1  0
 11 12  1  0
 12 13  1  0
 13 14  1  0
 14 15  1  0
 15 16  1  0
 16 17  1  0
A    8
R1
A   17
R2
M  END
>  <symbol>  (717)
nC65U

>  <m_abbr>  (717)
nC65U

>  <m_type>  (717)
rna

>  <m_subtype>  (717)
natural

>  <m_RgroupIdx>  (717)
7,16

>  <m_Rgroups>  (717)
H,H

$$$$

     RDKit          2D

 15 16  0  0  0  0  0  0  0  0999 V2000
    4.9827    3.4402    0.0000 N   0  0  0  0  0  0  0  0  0  0  0  0
    4.9827    1.9172    0.0000 C   0  0  0  0  0  0  0  0  0  0  0  0
    3.6664    1.1531    0.0000 N   0  0  0  0  0  0  0  0  0  0  0  0
    2.3429    1.9172    0.0000 C   0  0  0  0  0  0  0  0  0  0  0  0
    2.3429    3.4402    0.0000 C   0  0  0  0  0  0  0  0  0  0  0  0
    3.6679    4.2017    0.0000 C   0  0  0  0  0  0  0  0  0  0  0  0
    0.0000    2.6787    0.0000 C   0  0  0  0  0  0  0  0  0  0  0  0
    0.8960    3.9174    0.0000 N   0  0  0  0  0  0  0  0  0  0  0  0
    3.6679    5.7247    0.0000 O   0  0  0  0  0  0  0  0  0  0  0  0
    6.3017    1.1557    0.0000 N   0  0  0  0  0  0  0  0  0  0  0  0
    0.8960    1.4476    0.0000 N   0  0  0  0  0  0  0  0  0  0  0  0
    0.4229    0.0000    0.0000 R#  0  0  0  0  0  0  0  0  0  0  0  0
    7.6207    1.9172    0.0000 C   0  0  0  0  0  0  0  0  0  0  0  0
    8.9396    1.1557    0.0000 C   0  0  0  0  0  0  0  0  0  0  0  0
   10.2585    1.9172    0.0000 N   0  0  0  0  0  0  0  0  0  0  0  0
  1  2  1  0
  2  3  2  0
  3  4  1  0
  4  5  2  0
  5  6  1  0
  1  6  1  0
  7  8  2  0
  5  8  1  0
  6  9  2  0
  2 10  1  0
  4 11  1  0
  7 11  1  0
 11 12  1  0
 10 13  1  0
 13 14  1  0
 14 15  1  0
A   12
R1
M  END
>  <symbol>  (718)
nen2G

>  <m_abbr>  (718)
nen2G

>  <m_type>  (718)
rna

>  <m_subtype>  (718)
natural

>  <m_RgroupIdx>  (718)
11

>  <m_Rgroups>  (718)
H

$$$$

     RDKit          2D

 13 13  0  0  0  0  0  0  0  0999 V2000
    7.9157    3.8075    0.0000 N   0  0  0  0  0  0  0  0  0  0  0  0
    7.9157    2.2845    0.0000 C   0  0  0  0  0  0  0  0  0  0  0  0
    6.6009    1.5230    0.0000 N   0  0  0  0  0  0  0  0  0  0  0  0
    5.2774    2.2845    0.0000 C   0  0  0  0  0  0  0  0  0  0  0  0
    5.2759    3.8075    0.0000 C   0  0  0  0  0  0  0  0  0  0  0  0
    6.6009    4.5690    0.0000 C   0  0  0  0  0  0  0  0  0  0  0  0
    6.6009    6.0920    0.0000 O   0  0  0  0  0  0  0  0  0  0  0  0
    6.6009    0.0000    0.0000 R#  0  0  0  0  0  0  0  0  0  0  0  0
    9.2347    1.5230    0.0000 O   0  0  0  0  0  0  0  0  0  0  0  0
    3.9569    4.5690    0.0000 C   0  0  0  0  0  0  0  0  0  0  0  0
    2.6379    3.8075    0.0000 C   0  0  0  0  0  0  0  0  0  0  0  0
    1.3190    4.5690    0.0000 C   0  0  0  0  0  0  0  0  0  0  0  0
    0.0000    3.8075    0.0000 N   0  0  0  0  0  0  0  0  0  0  0  0
  1  2  1  0
  2  3  1  0
  3  4  1  0
  4  5  2  0
  5  6  1  0
  1  6  1  0
  6  7  2  0
  3  8  1  0
  2  9  2  0
  5 10  1  0
 10 11  1  0
 11 12  1  0
 12 13  1  0
A    8
R1
M  END
>  <symbol>  (719)
npr5U

>  <m_abbr>  (719)
npr5U

>  <m_type>  (719)
rna

>  <m_subtype>  (719)
natural

>  <m_RgroupIdx>  (719)
7

>  <m_Rgroups>  (719)
H

$$$$

     RDKit          2D

 12 12  0  0  0  0  0  0  0  0999 V2000
    1.3190    3.8075    0.0000 N   0  0  0  0  0  0  0  0  0  0  0  0
    1.3190    2.2845    0.0000 C   0  0  0  0  0  0  0  0  0  0  0  0
    2.6379    1.5230    0.0000 N   0  0  0  0  0  0  0  0  0  0  0  0
    3.9569    2.2845    0.0000 C   0  0  0  0  0  0  0  0  0  0  0  0
    3.9569    3.8075    0.0000 C   0  0  0  0  0  0  0  0  0  0  0  0
    2.6379    4.5690    0.0000 C   0  0  0  0  0  0  0  0  0  0  0  0
    0.0000    1.5230    0.0000 O   0  0  0  0  0  0  0  0  0  0  0  0
    2.6379    6.0920    0.0000 O   0  0  0  0  0  0  0  0  0  0  0  0
    2.6379    0.0000    0.0000 R#  0  0  0  0  0  0  0  0  0  0  0  0
    5.2758    4.5690    0.0000 C   0  0  0  0  0  0  0  0  0  0  0  0
    5.2758    6.0920    0.0000 N   0  0  0  0  0  0  0  0  0  0  0  0
    6.5948    6.8535    0.0000 C   0  0  0  0  0  0  0  0  0  0  0  0
  1  2  1  0
  2  3  1  0
  3  4  1  0
  4  5  2  0
  5  6  1  0
  1  6  1  0
  2  7  2  0
  6  8  2  0
  3  9  1  0
  5 10  1  0
 10 11  1  0
 11 12  1  0
A    9
R1
M  END
>  <symbol>  (720)
mnm5U

>  <m_abbr>  (720)
mnm5U

>  <m_type>  (720)
rna

>  <m_subtype>  (720)
natural

>  <m_RgroupIdx>  (720)
8

>  <m_Rgroups>  (720)
H

$$$$

     RDKit          2D

 10 11  0  0  0  0  0  0  0  0999 V2000
    4.9651    3.4323    0.0000 N   0  0  0  0  0  0  0  0  0  0  0  0
    4.9651    1.9146    0.0000 C   0  0  0  0  0  0  0  0  0  0  0  0
    3.6540    1.1532    0.0000 N   0  0  0  0  0  0  0  0  0  0  0  0
    2.3351    1.9146    0.0000 C   0  0  0  0  0  0  0  0  0  0  0  0
    2.3351    3.4323    0.0000 C   0  0  0  0  0  0  0  0  0  0  0  0
    3.6535    4.1912    0.0000 C   0  0  0  0  0  0  0  0  0  0  0  0
    0.8928    1.4439    0.0000 N   0  0  0  0  0  0  0  0  0  0  0  0
    0.0000    2.6735    0.0000 C   0  0  0  0  0  0  0  0  0  0  0  0
    0.8928    3.8997    0.0000 N   0  0  0  0  0  0  0  0  0  0  0  0
    0.4254    0.0000    0.0000 R#  0  0  0  0  0  0  0  0  0  0  0  0
  1  2  2  0
  2  3  1  0
  3  4  2  0
  4  5  1  0
  5  6  2  0
  1  6  1  0
  4  7  1  0
  7  8  1  0
  8  9  2  0
  5  9  1  0
  7 10  1  0
A   10
R1
M  END
>  <symbol>  (721)
purine

>  <m_abbr>  (721)
purine

>  <m_type>  (721)
rna

>  <m_subtype>  (721)
natural

>  <m_RgroupIdx>  (721)
9

>  <m_Rgroups>  (721)
H

$$$$

     RDKit          2D

 11 12  0  0  0  0  0  0  0  0999 V2000
    4.9824    3.4443    0.0000 N   0  0  0  0  0  0  0  0  0  0  0  0
    4.9824    1.9213    0.0000 C   0  0  0  0  0  0  0  0  0  0  0  0
    3.6667    1.1572    0.0000 N   0  0  0  0  0  0  0  0  0  0  0  0
    2.3432    1.9213    0.0000 C   0  0  0  0  0  0  0  0  0  0  0  0
    2.3432    3.4443    0.0000 C   0  0  0  0  0  0  0  0  0  0  0  0
    3.6662    4.2058    0.0000 C   0  0  0  0  0  0  0  0  0  0  0  0
    0.8959    1.4489    0.0000 N   0  0  0  0  0  0  0  0  0  0  0  0
    0.0000    2.6828    0.0000 C   0  0  0  0  0  0  0  0  0  0  0  0
    0.8959    3.9132    0.0000 N   0  0  0  0  0  0  0  0  0  0  0  0
    0.4268    0.0000    0.0000 R#  0  0  0  0  0  0  0  0  0  0  0  0
    6.3069    1.1588    0.0000 N   0  0  0  0  0  0  0  0  0  0  0  0
  1  2  2  0
  2  3  1  0
  3  4  2  0
  4  5  1  0
  5  6  2  0
  1  6  1  0
  4  7  1  0
  7  8  1  0
  8  9  2  0
  5  9  1  0
  7 10  1  0
  2 11  1  0
A   10
R1
M  END
>  <symbol>  (722)
n2purine

>  <m_abbr>  (722)
n2purine

>  <m_type>  (722)
rna

>  <m_subtype>  (722)
natural

>  <m_RgroupIdx>  (722)
9

>  <m_Rgroups>  (722)
H

$$$$

     RDKit          2D

 10 10  0  0  0  0  0  0  0  0999 V2000
    0.0000    3.8115    0.0000 C   0  0  0  0  0  0  0  0  0  0  0  0
    0.0000    2.2885    0.0000 C   0  0  0  0  0  0  0  0  0  0  0  0
    2.6391    2.2885    0.0000 C   0  0  0  0  0  0  0  0  0  0  0  0
    2.6391    3.8115    0.0000 N   0  0  0  0  0  0  0  0  0  0  0  0
    1.3175    4.5730    0.0000 C   0  0  0  0  0  0  0  0  0  0  0  0
    1.3175    5.9892    0.0000 O   0  0  0  0  0  0  0  0  0  0  0  0
    3.9606    1.5230    0.0000 O   0  0  0  0  0  0  0  0  0  0  0  0
    1.3175    1.5230    0.0000 N   0  0  0  0  0  0  0  0  0  0  0  0
    3.9647    4.5589    0.0000 C   0  0  0  0  0  0  0  0  0  0  0  0
    1.3175    0.0000    0.0000 R#  0  0  0  0  0  0  0  0  0  0  0  0
  1  2  2  0
  3  4  1  0
  4  5  1  0
  1  5  1  0
  5  6  2  0
  3  7  2  0
  2  8  1  0
  3  8  1  0
  4  9  1  0
  8 10  1  0
A   10
R1
M  END
>  <symbol>  (723)
m3U

>  <m_abbr>  (723)
m3U

>  <m_type>  (723)
rna

>  <m_subtype>  (723)
natural

>  <m_RgroupIdx>  (723)
9

>  <m_Rgroups>  (723)
H

$$$$

     RDKit          2D

 14 14  0  0  0  0  0  0  0  0999 V2000
    1.3192    3.8079    0.0000 C   0  0  0  0  0  0  0  0  0  0  0  0
    1.3192    2.2857    0.0000 C   0  0  0  0  0  0  0  0  0  0  0  0
    2.6384    1.5221    0.0000 N   0  0  0  0  0  0  0  0  0  0  0  0
    3.9576    2.2857    0.0000 C   0  0  0  0  0  0  0  0  0  0  0  0
    3.9576    3.8079    0.0000 N   0  0  0  0  0  0  0  0  0  0  0  0
    2.6384    4.5689    0.0000 C   0  0  0  0  0  0  0  0  0  0  0  0
    2.6384    5.9846    0.0000 O   0  0  0  0  0  0  0  0  0  0  0  0
    5.2818    1.5221    0.0000 O   0  0  0  0  0  0  0  0  0  0  0  0
    0.0000    4.5689    0.0000 C   0  0  0  0  0  0  0  0  0  0  0  0
    5.2818    4.5689    0.0000 C   0  0  0  0  0  0  0  0  0  0  0  0
    6.5909    3.8079    0.0000 C   0  0  0  0  0  0  0  0  0  0  0  0
    7.9076    4.5689    0.0000 C   0  0  0  0  0  0  0  0  0  0  0  0
    2.6384    0.0000    0.0000 R#  0  0  0  0  0  0  0  0  0  0  0  0
    9.2267    5.3300    0.0000 N   0  0  0  0  0  0  0  0  0  0  0  0
  1  2  2  0
  2  3  1  0
  3  4  1  0
  4  5  1  0
  5  6  1  0
  1  6  1  0
  6  7  2  0
  4  8  2  0
  1  9  1  0
  5 10  1  0
 10 11  1  0
 11 12  1  0
  3 13  1  0
 12 14  3  0
A   13
R1
M  END
>  <symbol>  (724)
cneT

>  <m_abbr>  (724)
cneT

>  <m_type>  (724)
rna

>  <m_subtype>  (724)
natural

>  <m_RgroupIdx>  (724)
12

>  <m_Rgroups>  (724)
H

$$$$

     RDKit          2D

 20 22  0  0  0  0  0  0  0  0999 V2000
    7.6190    1.9162    0.0000 C   0  0  0  0  0  0  0  0  0  0  0  0
    8.9379    1.1547    0.0000 C   0  0  0  0  0  0  0  0  0  0  0  0
   10.2569    1.9162    0.0000 C   0  0  0  0  0  0  0  0  0  0  0  0
   11.5772    1.1555    0.0000 C   0  0  0  0  0  0  0  0  0  0  0  0
   12.8949    1.9162    0.0000 C   0  0  0  0  0  0  0  0  0  0  0  0
   12.8949    3.4392    0.0000 C   0  0  0  0  0  0  0  0  0  0  0  0
   11.5779    4.2027    0.0000 C   0  0  0  0  0  0  0  0  0  0  0  0
   10.2569    3.4392    0.0000 C   0  0  0  0  0  0  0  0  0  0  0  0
    4.9811    3.4392    0.0000 N   0  0  0  0  0  0  0  0  0  0  0  0
    4.9811    1.9162    0.0000 C   0  0  0  0  0  0  0  0  0  0  0  0
    3.6627    1.1543    0.0000 N   0  0  0  0  0  0  0  0  0  0  0  0
    2.3431    1.9162    0.0000 C   0  0  0  0  0  0  0  0  0  0  0  0
    2.3431    3.4392    0.0000 C   0  0  0  0  0  0  0  0  0  0  0  0
    3.6641    4.2027    0.0000 C   0  0  0  0  0  0  0  0  0  0  0  0
    0.8968    1.4476    0.0000 N   0  0  0  0  0  0  0  0  0  0  0  0
    0.0000    2.6797    0.0000 C   0  0  0  0  0  0  0  0  0  0  0  0
    0.8968    3.9078    0.0000 N   0  0  0  0  0  0  0  0  0  0  0  0
    3.6641    5.7257    0.0000 N   0  0  0  0  0  0  0  0  0  0  0  0
    6.3000    1.1547    0.0000 N   0  0  0  0  0  0  0  0  0  0  0  0
    0.4236    0.0000    0.0000 R#  0  0  0  0  0  0  0  0  0  0  0  0
  1  2  1  0
  2  3  1  0
  3  4  2  0
  4  5  1  0
  5  6  2  0
  6  7  1  0
  7  8  2  0
  3  8  1  0
  9 10  2  0
 10 11  1  0
 11 12  2  0
 12 13  1  0
 13 14  2  0
  9 14  1  0
 12 15  1  0
 15 16  1  0
 16 17  2  0
 13 17  1  0
 14 18  1  0
 10 19  1  0
 15 20  1  0
  1 19  1  0
A   20
R1
M  END
>  <symbol>  (725)
phen2A

>  <m_abbr>  (725)
phen2A

>  <m_type>  (725)
rna

>  <m_subtype>  (725)
natural

>  <m_RgroupIdx>  (725)
19

>  <m_Rgroups>  (725)
H

$$$$

     RDKit          2D

 18 19  0  0  0  0  0  0  0  0999 V2000
    7.6190    2.2890    0.0000 C   0  0  0  0  0  0  0  0  0  0  0  0
    8.9380    1.5275    0.0000 C   0  0  0  0  0  0  0  0  0  0  0  0
   10.2569    2.2890    0.0000 C   0  0  0  0  0  0  0  0  0  0  0  0
   11.5772    1.5283    0.0000 N   0  0  0  0  0  0  0  0  0  0  0  0
    4.9811    3.8120    0.0000 N   0  0  0  0  0  0  0  0  0  0  0  0
    4.9811    2.2890    0.0000 C   0  0  0  0  0  0  0  0  0  0  0  0
    3.6628    1.5271    0.0000 N   0  0  0  0  0  0  0  0  0  0  0  0
    2.3431    2.2890    0.0000 C   0  0  0  0  0  0  0  0  0  0  0  0
    2.3431    3.8120    0.0000 C   0  0  0  0  0  0  0  0  0  0  0  0
    3.6641    4.5755    0.0000 C   0  0  0  0  0  0  0  0  0  0  0  0
    0.8969    1.8204    0.0000 N   0  0  0  0  0  0  0  0  0  0  0  0
    0.0000    3.0525    0.0000 C   0  0  0  0  0  0  0  0  0  0  0  0
    0.8969    4.2806    0.0000 N   0  0  0  0  0  0  0  0  0  0  0  0
    3.6641    6.0985    0.0000 N   0  0  0  0  0  0  0  0  0  0  0  0
    6.3001    1.5275    0.0000 N   0  0  0  0  0  0  0  0  0  0  0  0
    0.4237    0.3728    0.0000 R#  0  0  0  0  0  0  0  0  0  0  0  0
   11.5787    0.0000    0.0000 C   0  0  0  0  0  0  0  0  0  0  0  0
   12.9001    2.2937    0.0000 C   0  0  0  0  0  0  0  0  0  0  0  0
  1  2  1  0
  2  3  1  0
  3  4  1  0
  5  6  2  0
  6  7  1  0
  7  8  2  0
  8  9  1  0
  9 10  2  0
  5 10  1  0
  8 11  1  0
 11 12  1  0
 12 13  2  0
  9 13  1  0
 10 14  1  0
  6 15  1  0
 11 16  1  0
  1 15  1  0
  4 17  1  0
  4 18  1  0
A   16
R1
M  END
>  <symbol>  (726)
m2nprn2A

>  <m_abbr>  (726)
m2nprn2A

>  <m_type>  (726)
rna

>  <m_subtype>  (726)
natural

>  <m_RgroupIdx>  (726)
15

>  <m_Rgroups>  (726)
H

$$$$

     RDKit          2D

 17 18  0  0  0  0  0  0  0  0999 V2000
    7.6190    1.9161    0.0000 C   0  0  0  0  0  0  0  0  0  0  0  0
    8.9380    1.1546    0.0000 C   0  0  0  0  0  0  0  0  0  0  0  0
   10.2569    1.9161    0.0000 C   0  0  0  0  0  0  0  0  0  0  0  0
   11.5772    1.1555    0.0000 O   0  0  0  0  0  0  0  0  0  0  0  0
    4.9811    3.4391    0.0000 N   0  0  0  0  0  0  0  0  0  0  0  0
    4.9811    1.9161    0.0000 C   0  0  0  0  0  0  0  0  0  0  0  0
    3.6628    1.1542    0.0000 N   0  0  0  0  0  0  0  0  0  0  0  0
    2.3431    1.9161    0.0000 C   0  0  0  0  0  0  0  0  0  0  0  0
    2.3431    3.4391    0.0000 C   0  0  0  0  0  0  0  0  0  0  0  0
    3.6641    4.2027    0.0000 C   0  0  0  0  0  0  0  0  0  0  0  0
    0.8969    1.4476    0.0000 N   0  0  0  0  0  0  0  0  0  0  0  0
    0.0000    2.6797    0.0000 C   0  0  0  0  0  0  0  0  0  0  0  0
    0.8969    3.9078    0.0000 N   0  0  0  0  0  0  0  0  0  0  0  0
    3.6641    5.7257    0.0000 N   0  0  0  0  0  0  0  0  0  0  0  0
    6.3001    1.1546    0.0000 N   0  0  0  0  0  0  0  0  0  0  0  0
    0.4237    0.0000    0.0000 R#  0  0  0  0  0  0  0  0  0  0  0  0
   12.9001    1.9208    0.0000 C   0  0  0  0  0  0  0  0  0  0  0  0
  1  2  1  0
  2  3  1  0
  3  4  1  0
  5  6  2  0
  6  7  1  0
  7  8  2  0
  8  9  1  0
  9 10  2  0
  5 10  1  0
  8 11  1  0
 11 12  1  0
 12 13  2  0
  9 13  1  0
 10 14  1  0
  6 15  1  0
 11 16  1  0
  1 15  1  0
  4 17  1  0
A   16
R1
M  END
>  <symbol>  (727)
moprn2A

>  <m_abbr>  (727)
moprn2A

>  <m_type>  (727)
rna

>  <m_subtype>  (727)
natural

>  <m_RgroupIdx>  (727)
15

>  <m_Rgroups>  (727)
H

$$$$

     RDKit          2D

 19 21  0  0  0  0  0  0  0  0999 V2000
    7.6189    1.9218    0.0000 C   0  0  0  0  0  0  0  0  0  0  0  0
    8.9378    1.1603    0.0000 C   0  0  0  0  0  0  0  0  0  0  0  0
   10.2568    1.9218    0.0000 C   0  0  0  0  0  0  0  0  0  0  0  0
    4.9810    3.4448    0.0000 N   0  0  0  0  0  0  0  0  0  0  0  0
    4.9810    1.9218    0.0000 C   0  0  0  0  0  0  0  0  0  0  0  0
    3.6613    1.1607    0.0000 N   0  0  0  0  0  0  0  0  0  0  0  0
    2.3430    1.9218    0.0000 C   0  0  0  0  0  0  0  0  0  0  0  0
    2.3430    3.4448    0.0000 C   0  0  0  0  0  0  0  0  0  0  0  0
    3.6599    4.2043    0.0000 C   0  0  0  0  0  0  0  0  0  0  0  0
    0.8928    1.4492    0.0000 N   0  0  0  0  0  0  0  0  0  0  0  0
    0.0000    2.6813    0.0000 C   0  0  0  0  0  0  0  0  0  0  0  0
    0.8928    3.9135    0.0000 N   0  0  0  0  0  0  0  0  0  0  0  0
    3.6599    5.7273    0.0000 N   0  0  0  0  0  0  0  0  0  0  0  0
    6.2999    1.1603    0.0000 N   0  0  0  0  0  0  0  0  0  0  0  0
    0.4245    0.0000    0.0000 R#  0  0  0  0  0  0  0  0  0  0  0  0
   11.6470    1.2999    0.0000 N   0  0  0  0  0  0  0  0  0  0  0  0
   12.6652    2.4310    0.0000 C   0  0  0  0  0  0  0  0  0  0  0  0
   11.9055    3.7524    0.0000 C   0  0  0  0  0  0  0  0  0  0  0  0
   10.4144    3.4453    0.0000 N   0  0  0  0  0  0  0  0  0  0  0  0
  1  2  1  0
  2  3  1  0
  4  5  2  0
  5  6  1  0
  6  7  2  0
  7  8  1  0
  8  9  2  0
  4  9  1  0
  7 10  1  0
 10 11  1  0
 11 12  2  0
  8 12  1  0
  9 13  1  0
  5 14  1  0
 10 15  1  0
  1 14  1  0
  3 16  1  0
 16 17  1  0
 17 18  2  0
 18 19  1  0
  3 19  2  0
A   15
R1
M  END
>  <symbol>  (728)
2imen2A

>  <m_abbr>  (728)
2imen2A

>  <m_type>  (728)
rna

>  <m_subtype>  (728)
natural

>  <m_RgroupIdx>  (728)
14

>  <m_Rgroups>  (728)
H

$$$$

     RDKit          2D

 11 11  0  0  0  0  0  0  0  0999 V2000
    1.3191    3.8116    0.0000 C   0  0  0  0  0  0  0  0  0  0  0  0
    1.3191    2.2886    0.0000 C   0  0  0  0  0  0  0  0  0  0  0  0
    3.9582    2.2886    0.0000 C   0  0  0  0  0  0  0  0  0  0  0  0
    3.9582    3.8116    0.0000 N   0  0  0  0  0  0  0  0  0  0  0  0
    2.6366    4.5731    0.0000 C   0  0  0  0  0  0  0  0  0  0  0  0
    2.6366    5.9893    0.0000 O   0  0  0  0  0  0  0  0  0  0  0  0
    5.2797    1.5230    0.0000 O   0  0  0  0  0  0  0  0  0  0  0  0
    2.6366    1.5230    0.0000 N   0  0  0  0  0  0  0  0  0  0  0  0
    5.2838    4.5590    0.0000 C   0  0  0  0  0  0  0  0  0  0  0  0
    2.6366    0.0000    0.0000 R#  0  0  0  0  0  0  0  0  0  0  0  0
    0.0000    4.5728    0.0000 C   0  0  0  0  0  0  0  0  0  0  0  0
  1  2  2  0
  3  4  1  0
  4  5  1  0
  1  5  1  0
  5  6  2  0
  3  7  2  0
  2  8  1  0
  3  8  1  0
  4  9  1  0
  8 10  1  0
  1 11  1  0
A   10
R1
M  END
>  <symbol>  (729)
m3T

>  <m_abbr>  (729)
m3T

>  <m_type>  (729)
rna

>  <m_subtype>  (729)
natural

>  <m_RgroupIdx>  (729)
9

>  <m_Rgroups>  (729)
H

$$$$

     RDKit          2D

  9  9  0  0  0  0  0  0  0  0999 V2000
    0.0000    3.8116    0.0000 C   0  0  0  0  0  0  0  0  0  0  0  0
    0.0000    2.2886    0.0000 C   0  0  0  0  0  0  0  0  0  0  0  0
    2.6390    2.2886    0.0000 C   0  0  0  0  0  0  0  0  0  0  0  0
    2.6390    3.8116    0.0000 N   0  0  0  0  0  0  0  0  0  0  0  0
    1.3175    4.5731    0.0000 C   0  0  0  0  0  0  0  0  0  0  0  0
    1.3175    5.9893    0.0000 S   0  0  0  0  0  0  0  0  0  0  0  0
    3.9606    1.5230    0.0000 O   0  0  0  0  0  0  0  0  0  0  0  0
    1.3175    1.5230    0.0000 N   0  0  0  0  0  0  0  0  0  0  0  0
    1.3175    0.0000    0.0000 R#  0  0  0  0  0  0  0  0  0  0  0  0
  1  2  2  0
  3  4  1  0
  4  5  1  0
  1  5  1  0
  5  6  2  0
  3  7  2  0
  2  8  1  0
  3  8  1  0
  8  9  1  0
A    9
R1
M  END
>  <symbol>  (730)
s4U

>  <m_abbr>  (730)
s4U

>  <m_type>  (730)
rna

>  <m_subtype>  (730)
natural

>  <m_RgroupIdx>  (730)
8

>  <m_Rgroups>  (730)
H

$$$$

     RDKit          2D

 14 14  0  0  0  0  0  0  0  0999 V2000
    1.3191    3.8116    0.0000 C   0  0  0  0  0  0  0  0  0  0  0  0
    1.3191    2.2886    0.0000 C   0  0  0  0  0  0  0  0  0  0  0  0
    3.9582    2.2886    0.0000 C   0  0  0  0  0  0  0  0  0  0  0  0
    3.9582    3.8116    0.0000 N   0  0  0  0  0  0  0  0  0  0  0  0
    2.6366    4.5731    0.0000 C   0  0  0  0  0  0  0  0  0  0  0  0
    2.6366    5.9893    0.0000 S   0  0  0  0  0  0  0  0  0  0  0  0
    5.2797    1.5230    0.0000 O   0  0  0  0  0  0  0  0  0  0  0  0
    2.6366    1.5230    0.0000 N   0  0  0  0  0  0  0  0  0  0  0  0
    2.6366    0.0000    0.0000 R#  0  0  0  0  0  0  0  0  0  0  0  0
    0.0000    4.5727    0.0000 C   0  0  0  0  0  0  0  0  0  0  0  0
    3.9556    6.7508    0.0000 C   0  0  0  0  0  0  0  0  0  0  0  0
    3.9556    8.2738    0.0000 C   0  0  0  0  0  0  0  0  0  0  0  0
    5.2745    9.0353    0.0000 C   0  0  0  0  0  0  0  0  0  0  0  0
    6.5889    9.7941    0.0000 N   0  0  0  0  0  0  0  0  0  0  0  0
 13 14  3  0
  1  2  2  0
  3  4  1  0
  4  5  2  0
  1  5  1  0
  5  6  1  0
  3  7  2  0
  2  8  1  0
  3  8  1  0
  8  9  1  0
  1 10  1  0
  6 11  1  0
 11 12  1  0
 12 13  1  0
A    9
R1
M  END
>  <symbol>  (731)
cnes4T

>  <m_abbr>  (731)
cnes4T

>  <m_type>  (731)
rna

>  <m_subtype>  (731)
natural

>  <m_RgroupIdx>  (731)
8

>  <m_Rgroups>  (731)
H

$$$$

     RDKit          2D

 14 15  0  0  0  0  0  0  0  0999 V2000
    5.0313    0.0000    0.0000 R#  0  0  0  0  0  0  0  0  0  0  0  0
    5.0313    1.7556    0.0000 N   0  0  0  0  0  0  0  0  0  0  0  0
    6.3461    2.5137    0.0000 C   0  0  0  0  0  0  0  0  0  0  0  0
    6.3461    4.0302    0.0000 N   0  0  0  0  0  0  0  0  0  0  0  0
    5.0313    4.7886    0.0000 C   0  0  0  0  0  0  0  0  0  0  0  0
    3.7164    4.0302    0.0000 C   0  0  0  0  0  0  0  0  0  0  0  0
    3.7164    2.5137    0.0000 C   0  0  0  0  0  0  0  0  0  0  0  0
    5.0313    6.3063    0.0000 O   0  0  0  0  0  0  0  0  0  0  0  0
    7.6605    1.7548    0.0000 O   0  0  0  0  0  0  0  0  0  0  0  0
    2.4020    4.7890    0.0000 C   0  0  0  0  0  0  0  0  0  0  0  0
    2.2434    6.2985    0.0000 S   0  0  0  0  0  0  0  0  0  0  0  0
    0.7588    6.6140    0.0000 C   0  0  0  0  0  0  0  0  0  0  0  0
    0.0000    5.2996    0.0000 C   0  0  0  0  0  0  0  0  0  0  0  0
    1.0155    4.1717    0.0000 N   0  0  0  0  0  0  0  0  0  0  0  0
  1  2  1  0
  2  3  1  0
  3  4  1  0
  4  5  1  0
  5  6  1  0
  6  7  2  0
  2  7  1  0
  5  8  2  0
  3  9  2  0
  6 10  1  0
 10 11  1  0
 11 12  1  0
 12 13  2  0
 13 14  1  0
 14 10  2  0
A    1
R1
M  END
>  <symbol>  (732)
thiaz5U

>  <m_abbr>  (732)
thiaz5U

>  <m_type>  (732)
rna

>  <m_subtype>  (732)
natural

>  <m_RgroupIdx>  (732)
0

>  <m_Rgroups>  (732)
H

$$$$

     RDKit          2D

 14 15  0  0  0  0  0  0  0  0999 V2000
    3.7295    3.8088    0.0000 C   0  0  0  0  0  0  0  0  0  0  0  0
    3.7295    2.2866    0.0000 C   0  0  0  0  0  0  0  0  0  0  0  0
    5.0472    1.5230    0.0000 N   0  0  0  0  0  0  0  0  0  0  0  0
    6.3676    2.2866    0.0000 C   0  0  0  0  0  0  0  0  0  0  0  0
    6.3676    3.8088    0.0000 N   0  0  0  0  0  0  0  0  0  0  0  0
    5.0472    4.5697    0.0000 C   0  0  0  0  0  0  0  0  0  0  0  0
    5.0472    6.0927    0.0000 N   0  0  0  0  0  0  0  0  0  0  0  0
    7.6866    1.5251    0.0000 O   0  0  0  0  0  0  0  0  0  0  0  0
    2.4105    4.5703    0.0000 C   0  0  0  0  0  0  0  0  0  0  0  0
    2.2513    6.0850    0.0000 N   0  0  0  0  0  0  0  0  0  0  0  0
    0.7614    6.4014    0.0000 C   0  0  0  0  0  0  0  0  0  0  0  0
    0.0000    5.0826    0.0000 C   0  0  0  0  0  0  0  0  0  0  0  0
    1.0192    3.9508    0.0000 S   0  0  0  0  0  0  0  0  0  0  0  0
    5.0472    0.0000    0.0000 R#  0  0  0  0  0  0  0  0  0  0  0  0
  1  2  2  0
  2  3  1  0
  3  4  1  0
  4  5  1  0
  5  6  2  0
  1  6  1  0
  6  7  1  0
  4  8  2  0
  1  9  1  0
  9 10  2  0
 10 11  1  0
 11 12  2  0
 12 13  1  0
 13  9  1  0
  3 14  1  0
A   14
R1
M  END
>  <symbol>  (733)
thiaz5C

>  <m_abbr>  (733)
thiaz5C

>  <m_type>  (733)
rna

>  <m_subtype>  (733)
natural

>  <m_RgroupIdx>  (733)
13

>  <m_Rgroups>  (733)
H

$$$$

     RDKit          2D

 19 20  0  0  0  0  0  0  0  0999 V2000
    2.6303    0.0000    0.0000 R#  0  0  0  0  0  0  0  0  0  0  0  0
    3.9434    3.7957    0.0000 N   0  0  0  0  0  0  0  0  0  0  0  0
    3.9434    2.2788    0.0000 C   0  0  0  0  0  0  0  0  0  0  0  0
    2.6303    1.5177    0.0000 N   0  0  0  0  0  0  0  0  0  0  0  0
    1.3143    2.2788    0.0000 C   0  0  0  0  0  0  0  0  0  0  0  0
    1.3143    3.7957    0.0000 C   0  0  0  0  0  0  0  0  0  0  0  0
    2.6302    4.5539    0.0000 C   0  0  0  0  0  0  0  0  0  0  0  0
    2.6302    6.0716    0.0000 O   0  0  0  0  0  0  0  0  0  0  0  0
    5.2578    1.5199    0.0000 O   0  0  0  0  0  0  0  0  0  0  0  0
    0.0000    4.5545    0.0000 C   0  0  0  0  0  0  0  0  0  0  0  0
    5.2578    4.5545    0.0000 C   0  0  0  0  0  0  0  0  0  0  0  0
    6.5721    3.7957    0.0000 C   0  0  0  0  0  0  0  0  0  0  0  0
    6.5722    2.2780    0.0000 C   0  0  0  0  0  0  0  0  0  0  0  0
    7.8864    1.5192    0.0000 C   0  0  0  0  0  0  0  0  0  0  0  0
    9.2009    2.2780    0.0000 C   0  0  0  0  0  0  0  0  0  0  0  0
    9.2010    3.7956    0.0000 C   0  0  0  0  0  0  0  0  0  0  0  0
    7.8866    4.5545    0.0000 C   0  0  0  0  0  0  0  0  0  0  0  0
   10.5152    1.5191    0.0000 O   0  0  0  0  0  0  0  0  0  0  0  0
   11.8296    2.2780    0.0000 C   0  0  0  0  0  0  0  0  0  0  0  0
  2  3  1  0
  3  4  1  0
  4  5  1  0
  5  6  2  0
  6  7  1  0
  2  7  1  0
  7  8  2  0
  3  9  2  0
  6 10  1  0
  1  4  1  0
  2 11  1  0
 11 12  1  0
 12 13  2  0
 13 14  1  0
 14 15  2  0
 15 16  1  0
 16 17  2  0
 17 12  1  0
 15 18  1  0
 18 19  1  0
A    1
R1
M  END
>  <symbol>  (734)
mo4bn3T

>  <m_abbr>  (734)
mo4bn3T

>  <m_type>  (734)
rna

>  <m_subtype>  (734)
natural

>  <m_RgroupIdx>  (734)
0

>  <m_Rgroups>  (734)
H

$$$$

     RDKit          2D

 10 10  0  0  0  0  0  0  0  0999 V2000
    3.9573    3.8092    0.0000 N   0  0  0  0  0  0  0  0  0  0  0  0
    3.9573    2.2866    0.0000 C   0  0  0  0  0  0  0  0  0  0  0  0
    2.6396    1.5230    0.0000 N   0  0  0  0  0  0  0  0  0  0  0  0
    1.3189    2.2866    0.0000 C   0  0  0  0  0  0  0  0  0  0  0  0
    1.3189    3.8092    0.0000 C   0  0  0  0  0  0  0  0  0  0  0  0
    2.6396    4.5703    0.0000 C   0  0  0  0  0  0  0  0  0  0  0  0
    2.6396    6.0933    0.0000 S   0  0  0  0  0  0  0  0  0  0  0  0
    5.2763    1.5251    0.0000 O   0  0  0  0  0  0  0  0  0  0  0  0
    0.0000    4.5707    0.0000 C   0  0  0  0  0  0  0  0  0  0  0  0
    2.6396    0.0000    0.0000 R#  0  0  0  0  0  0  0  0  0  0  0  0
  1  2  1  0
  2  3  1  0
  3  4  1  0
  4  5  2  0
  5  6  1  0
  1  6  1  0
  6  7  2  0
  2  8  2  0
  5  9  1  0
  3 10  1  0
A   10
R1
M  END
>  <symbol>  (735)
s4T

>  <m_abbr>  (735)
s4T

>  <m_type>  (735)
rna

>  <m_subtype>  (735)
natural

>  <m_RgroupIdx>  (735)
9

>  <m_Rgroups>  (735)
H

$$$$

     RDKit          2D

 13 13  0  0  0  0  0  0  0  0999 V2000
    7.8863    3.7954    0.0000 N   0  0  0  0  0  0  0  0  0  0  0  0
    7.8863    2.2787    0.0000 C   0  0  0  0  0  0  0  0  0  0  0  0
    6.5731    1.5177    0.0000 N   0  0  0  0  0  0  0  0  0  0  0  0
    5.2581    2.2787    0.0000 C   0  0  0  0  0  0  0  0  0  0  0  0
    5.2575    3.7954    0.0000 C   0  0  0  0  0  0  0  0  0  0  0  0
    6.5731    4.5537    0.0000 C   0  0  0  0  0  0  0  0  0  0  0  0
    6.5731    6.0714    0.0000 N   0  0  0  0  0  0  0  0  0  0  0  0
    9.2006    1.5199    0.0000 O   0  0  0  0  0  0  0  0  0  0  0  0
    3.9431    4.5543    0.0000 C   0  0  0  0  0  0  0  0  0  0  0  0
    2.6287    5.3132    0.0000 C   0  0  0  0  0  0  0  0  0  0  0  0
    1.3144    6.0720    0.0000 C   0  0  0  0  0  0  0  0  0  0  0  0
    0.0000    5.3132    0.0000 N   0  0  0  0  0  0  0  0  0  0  0  0
    6.5731    0.0000    0.0000 R#  0  0  0  0  0  0  0  0  0  0  0  0
  1  2  1  0
  2  3  1  0
  3  4  1  0
  4  5  2  0
  5  6  1  0
  1  6  2  0
  6  7  1  0
  2  8  2  0
  5  9  1  0
  9 10  3  0
 10 11  1  0
 11 12  1  0
  3 13  1  0
A   13
R1
M  END
>  <symbol>  (736)
npry5C

>  <m_abbr>  (736)
npry5C

>  <m_type>  (736)
rna

>  <m_subtype>  (736)
natural

>  <m_RgroupIdx>  (736)
12

>  <m_Rgroups>  (736)
H

$$$$

     RDKit          2D

 13 13  0  0  0  0  0  0  0  0999 V2000
    7.9138    3.8086    0.0000 N   0  0  0  0  0  0  0  0  0  0  0  0
    7.9138    2.2866    0.0000 C   0  0  0  0  0  0  0  0  0  0  0  0
    6.5960    1.5230    0.0000 N   0  0  0  0  0  0  0  0  0  0  0  0
    5.2764    2.2866    0.0000 C   0  0  0  0  0  0  0  0  0  0  0  0
    5.2759    3.8086    0.0000 C   0  0  0  0  0  0  0  0  0  0  0  0
    6.5960    4.5695    0.0000 C   0  0  0  0  0  0  0  0  0  0  0  0
    6.5960    6.0925    0.0000 O   0  0  0  0  0  0  0  0  0  0  0  0
    9.2327    1.5251    0.0000 O   0  0  0  0  0  0  0  0  0  0  0  0
    3.9569    4.5701    0.0000 C   0  0  0  0  0  0  0  0  0  0  0  0
    2.6379    5.3316    0.0000 C   0  0  0  0  0  0  0  0  0  0  0  0
    1.3190    6.0931    0.0000 C   0  0  0  0  0  0  0  0  0  0  0  0
    0.0000    5.3316    0.0000 N   0  0  0  0  0  0  0  0  0  0  0  0
    6.5960    0.0000    0.0000 R#  0  0  0  0  0  0  0  0  0  0  0  0
  1  2  1  0
  2  3  1  0
  3  4  1  0
  4  5  2  0
  5  6  1  0
  1  6  1  0
  6  7  2  0
  2  8  2  0
  5  9  1  0
  9 10  3  0
 10 11  1  0
 11 12  1  0
  3 13  1  0
A   13
R1
M  END
>  <symbol>  (737)
npry5U

>  <m_abbr>  (737)
npry5U

>  <m_type>  (737)
rna

>  <m_subtype>  (737)
natural

>  <m_RgroupIdx>  (737)
12

>  <m_Rgroups>  (737)
H

$$$$

     RDKit          2D

 26 28  0  0  0  0  0  0  0  0999 V2000
    2.6300    0.1244    0.0000 R#  0  0  0  0  0  0  0  0  0  0  0  0
    3.9432    3.9198    0.0000 N   0  0  0  0  0  0  0  0  0  0  0  0
    3.9432    2.4031    0.0000 C   0  0  0  0  0  0  0  0  0  0  0  0
    2.6300    1.6421    0.0000 N   0  0  0  0  0  0  0  0  0  0  0  0
    1.3144    2.4031    0.0000 C   0  0  0  0  0  0  0  0  0  0  0  0
    1.3144    3.9198    0.0000 C   0  0  0  0  0  0  0  0  0  0  0  0
    2.6300    4.6780    0.0000 C   0  0  0  0  0  0  0  0  0  0  0  0
    2.6300    6.1957    0.0000 O   0  0  0  0  0  0  0  0  0  0  0  0
    5.2576    1.6442    0.0000 O   0  0  0  0  0  0  0  0  0  0  0  0
    0.0000    4.6786    0.0000 C   0  0  0  0  0  0  0  0  0  0  0  0
    5.2576    4.6786    0.0000 C   0  0  0  0  0  0  0  0  0  0  0  0
    6.5719    3.9198    0.0000 O   0  0  0  0  0  0  0  0  0  0  0  0
    7.8863    4.6786    0.0000 C   0  0  0  0  0  0  0  0  0  0  0  0
    7.8863    6.1963    0.0000 C   0  0  0  0  0  0  0  0  0  0  0  0
    9.2007    3.9198    0.0000 C   0  0  0  0  0  0  0  0  0  0  0  0
    9.2007    2.4021    0.0000 C   0  0  0  0  0  0  0  0  0  0  0  0
   10.5148    1.6432    0.0000 C   0  0  0  0  0  0  0  0  0  0  0  0
   11.8293    2.4021    0.0000 C   0  0  0  0  0  0  0  0  0  0  0  0
   11.8293    3.9198    0.0000 C   0  0  0  0  0  0  0  0  0  0  0  0
   10.5148    4.6786    0.0000 C   0  0  0  0  0  0  0  0  0  0  0  0
   10.8304    0.1585    0.0000 O   0  0  0  0  0  0  0  0  0  0  0  0
   12.3398    0.0000    0.0000 C   0  0  0  0  0  0  0  0  0  0  0  0
   12.9570    1.3864    0.0000 O   0  0  0  0  0  0  0  0  0  0  0  0
   10.5148    6.1963    0.0000 N   0  0  0  0  0  0  0  0  0  0  0  0
    9.2004    6.9552    0.0000 O   0  0  0  0  0  0  0  0  0  0  0  0
   11.8292    6.9552    0.0000 O   0  0  0  0  0  0  0  0  0  0  0  0
  2  3  1  0
  3  4  1  0
  4  5  1  0
  5  6  2  0
  6  7  1  0
  2  7  1  0
  7  8  2  0
  3  9  2  0
  1  4  1  0
  6 10  1  0
  2 11  1  0
 11 12  1  0
 12 13  1  0
 13 14  1  0
 13 15  1  0
 15 16  2  0
 16 17  1  0
 17 18  2  0
 18 19  1  0
 19 20  2  0
 20 15  1  0
 17 21  1  0
 21 22  1  0
 22 23  1  0
 23 18  1  0
 20 24  1  0
 24 25  2  0
 24 26  1  0
M  CHG  2  24   1  26  -1
A    1
R1
M  END
>  <symbol>  (738)
npomT

>  <m_abbr>  (738)
npomT

>  <m_type>  (738)
rna

>  <m_subtype>  (738)
natural

>  <m_RgroupIdx>  (738)
0

>  <m_Rgroups>  (738)
H

$$$$

     RDKit          2D

 45 48  0  0  0  0  0  0  0  0999 V2000
    3.1881    0.0000    0.0000 R#  0  0  0  0  0  0  0  0  0  0  0  0
    4.7683    4.8858    0.0000 C   0  0  0  0  0  0  0  0  0  0  0  0
    4.7719    3.0497    0.0000 C   0  0  0  0  0  0  0  0  0  0  0  0
    3.1840    2.1253    0.0000 N   0  0  0  0  0  0  0  0  0  0  0  0
    1.5893    3.0436    0.0000 C   0  0  0  0  0  0  0  0  0  0  0  0
    1.5858    4.8797    0.0000 N   0  0  0  0  0  0  0  0  0  0  0  0
    3.1769    5.8006    0.0000 C   0  0  0  0  0  0  0  0  0  0  0  0
    3.1734    7.6379    0.0000 O   0  0  0  0  0  0  0  0  0  0  0  0
    0.0000    2.1219    0.0000 O   0  0  0  0  0  0  0  0  0  0  0  0
    6.3577    5.8074    0.0000 C   0  0  0  0  0  0  0  0  0  0  0  0
    7.9506    4.8919    0.0000 C   0  0  0  0  0  0  0  0  0  0  0  0
    9.5399    5.8135    0.0000 C   0  0  0  0  0  0  0  0  0  0  0  0
    9.5364    7.6508    0.0000 O   0  0  0  0  0  0  0  0  0  0  0  0
   11.1328    4.8980    0.0000 N   0  0  0  0  0  0  0  0  0  0  0  0
   12.7221    5.8196    0.0000 C   0  0  0  0  0  0  0  0  0  0  0  0
   14.3150    4.9041    0.0000 C   0  0  0  0  0  0  0  0  0  0  0  0
   15.9044    5.8257    0.0000 C   0  0  0  0  0  0  0  0  0  0  0  0
   17.4972    4.9102    0.0000 C   0  0  0  0  0  0  0  0  0  0  0  0
   19.0866    5.8318    0.0000 C   0  0  0  0  0  0  0  0  0  0  0  0
   20.6795    4.9163    0.0000 C   0  0  0  0  0  0  0  0  0  0  0  0
   22.2688    5.8379    0.0000 N   0  0  0  0  0  0  0  0  0  0  0  0
   23.8617    4.9224    0.0000 C   0  0  0  0  0  0  0  0  0  0  0  0
   25.4510    5.8440    0.0000 C   0  0  0  0  0  0  0  0  0  0  0  0
   23.8652    3.0851    0.0000 O   0  0  0  0  0  0  0  0  0  0  0  0
   27.0439    4.9284    0.0000 C   0  0  0  0  0  0  0  0  0  0  0  0
   28.6333    5.8501    0.0000 C   0  0  0  0  0  0  0  0  0  0  0  0
   30.2085    4.9046    0.0000 C   0  0  0  0  0  0  0  0  0  0  0  0
   31.8150    5.7960    0.0000 C   0  0  0  0  0  0  0  0  0  0  0  0
   31.8463    7.6330    0.0000 N   0  0  0  0  0  0  0  0  0  0  0  0
   33.3903    4.8505    0.0000 O   0  0  0  0  0  0  0  0  0  0  0  0
   33.5239    8.1166    0.0000 C   0  0  0  0  0  0  0  0  0  0  0  0
   34.1331    9.4997    0.0000 C   0  0  0  0  0  0  0  0  0  0  0  0
   33.6639   10.9429    0.0000 C   0  0  0  0  0  0  0  0  0  0  0  0
   29.6654    9.6548    0.0000 C   0  0  0  0  0  0  0  0  0  0  0  0
   30.1012    8.2010    0.0000 C   0  0  0  0  0  0  0  0  0  0  0  0
   35.6176    9.1845    0.0000 C   0  0  0  0  0  0  0  0  0  0  0  0
   36.6329   10.3124    0.0000 C   0  0  0  0  0  0  0  0  0  0  0  0
   36.1636   11.7556    0.0000 C   0  0  0  0  0  0  0  0  0  0  0  0
   34.6792   12.0709    0.0000 C   0  0  0  0  0  0  0  0  0  0  0  0
   28.1885   10.0043    0.0000 C   0  0  0  0  0  0  0  0  0  0  0  0
   27.1474    8.8999    0.0000 C   0  0  0  0  0  0  0  0  0  0  0  0
   27.5831    7.4461    0.0000 C   0  0  0  0  0  0  0  0  0  0  0  0
   29.0601    7.0966    0.0000 C   0  0  0  0  0  0  0  0  0  0  0  0
   30.8117   11.1671    0.0000 C   0  0  0  0  0  0  0  0  0  0  0  0
   32.4617   11.3956    0.0000 C   0  0  0  0  0  0  0  0  0  0  0  0
  2  3  2  0
  3  4  1  0
  4  5  1  0
  5  6  1  0
  6  7  1  0
  2  7  1  0
  7  8  2  0
  1  4  1  0
  5  9  2  0
  2 10  1  0
 10 11  2  0
 11 12  1  0
 12 13  2  0
 12 14  1  0
 14 15  1  0
 15 16  1  0
 16 17  1  0
 17 18  1  0
 18 19  1  0
 19 20  1  0
 20 21  1  0
 21 22  1  0
 22 23  1  0
 22 24  2  0
 23 25  1  0
 25 26  1  0
 26 27  1  0
 27 28  1  0
 28 29  1  0
 28 30  2  0
 29 31  1  0
 31 32  1  0
 32 33  2  0
 34 35  2  0
 35 29  1  0
 32 36  1  0
 36 37  2  0
 37 38  1  0
 38 39  2  0
 39 33  1  0
 34 40  1  0
 40 41  2  0
 41 42  1  0
 42 43  2  0
 43 35  1  0
 34 44  1  0
 44 45  3  0
 45 33  1  0
A    1
R1
M  END
>  <symbol>  (739)
DBCOnC6ncee5U

>  <m_abbr>  (739)
DBCOnC6ncee5U

>  <m_type>  (739)
rna

>  <m_subtype>  (739)
natural

>  <m_RgroupIdx>  (739)
0

>  <m_Rgroups>  (739)
H

$$$$

     RDKit          2D

 18 18  0  0  0  0  0  0  0  0999 V2000
    9.2333    2.2845    0.0000 C   0  0  0  0  0  0  0  0  0  0  0  0
    9.2331    3.8052    0.0000 C   0  0  0  0  0  0  0  0  0  0  0  0
   10.5518    4.5671    0.0000 C   0  0  0  0  0  0  0  0  0  0  0  0
   11.8708    3.8056    0.0000 N   0  0  0  0  0  0  0  0  0  0  0  0
   11.8710    2.2849    0.0000 C   0  0  0  0  0  0  0  0  0  0  0  0
   13.1873    1.5207    0.0000 O   0  0  0  0  0  0  0  0  0  0  0  0
   10.5516    6.0905    0.0000 N   0  0  0  0  0  0  0  0  0  0  0  0
   10.5523    1.5230    0.0000 N   0  0  0  0  0  0  0  0  0  0  0  0
    7.9140    4.5664    0.0000 C   0  0  0  0  0  0  0  0  0  0  0  0
   10.5525    0.0000    0.0000 R#  0  0  0  0  0  0  0  0  0  0  0  0
    9.2325    6.8518    0.0000 C   0  0  0  0  0  0  0  0  0  0  0  0
    7.9137    6.0901    0.0000 C   0  0  0  0  0  0  0  0  0  0  0  0
    6.5946    6.8514    0.0000 C   0  0  0  0  0  0  0  0  0  0  0  0
    5.2758    6.0897    0.0000 C   0  0  0  0  0  0  0  0  0  0  0  0
    3.9567    6.8510    0.0000 C   0  0  0  0  0  0  0  0  0  0  0  0
    2.6379    6.0893    0.0000 C   0  0  0  0  0  0  0  0  0  0  0  0
    1.3188    6.8506    0.0000 O   0  0  0  0  0  0  0  0  0  0  0  0
    0.0000    6.0889    0.0000 R#  0  0  0  0  0  0  0  0  0  0  0  0
  1  2  2  0
  2  3  1  0
  3  4  2  0
  4  5  1  0
  5  6  2  0
  3  7  1  0
  8  1  1  0
  8  5  1  0
  2  9  1  0
  8 10  1  0
  7 11  1  0
 11 12  1  0
 12 13  1  0
 13 14  1  0
 14 15  1  0
 15 16  1  0
 16 17  1  0
 17 18  1  0
A   10
R1
A   18
R2
M  END
>  <symbol>  (740)
oC64m5C

>  <m_abbr>  (740)
oC64m5C

>  <m_type>  (740)
rna

>  <m_subtype>  (740)
natural

>  <m_RgroupIdx>  (740)
9,17

>  <m_Rgroups>  (740)
H,H

$$$$

     RDKit          2D

 23 23  0  0  0  0  0  0  0  0999 V2000
    9.2326    4.5653    0.0000 C   0  0  0  0  0  0  0  0  0  0  0  0
    7.9138    3.8036    0.0000 C   0  0  0  0  0  0  0  0  0  0  0  0
    6.5947    4.5649    0.0000 C   0  0  0  0  0  0  0  0  0  0  0  0
    5.2759    3.8032    0.0000 C   0  0  0  0  0  0  0  0  0  0  0  0
    3.9568    4.5645    0.0000 C   0  0  0  0  0  0  0  0  0  0  0  0
    2.6380    3.8028    0.0000 C   0  0  0  0  0  0  0  0  0  0  0  0
    1.3189    4.5641    0.0000 N   0  0  0  0  0  0  0  0  0  0  0  0
    0.0000    3.8024    0.0000 R#  0  0  0  0  0  0  0  0  0  0  0  0
    1.3189    6.0871    0.0000 R#  0  0  0  0  0  0  0  0  0  0  0  0
   15.8278    2.2845    0.0000 C   0  0  0  0  0  0  0  0  0  0  0  0
   15.8275    3.8052    0.0000 C   0  0  0  0  0  0  0  0  0  0  0  0
   17.1463    4.5671    0.0000 C   0  0  0  0  0  0  0  0  0  0  0  0
   18.4652    3.8056    0.0000 N   0  0  0  0  0  0  0  0  0  0  0  0
   18.4655    2.2849    0.0000 C   0  0  0  0  0  0  0  0  0  0  0  0
   19.7817    1.5207    0.0000 O   0  0  0  0  0  0  0  0  0  0  0  0
   17.1460    6.0905    0.0000 N   0  0  0  0  0  0  0  0  0  0  0  0
   17.1467    1.5230    0.0000 N   0  0  0  0  0  0  0  0  0  0  0  0
   14.5084    4.5664    0.0000 C   0  0  0  0  0  0  0  0  0  0  0  0
   17.1470    0.0000    0.0000 R#  0  0  0  0  0  0  0  0  0  0  0  0
   13.1896    3.8046    0.0000 C   0  0  0  0  0  0  0  0  0  0  0  0
   11.8705    4.5658    0.0000 C   0  0  0  0  0  0  0  0  0  0  0  0
   10.5517    3.8040    0.0000 N   0  0  0  0  0  0  0  0  0  0  0  0
   11.8705    6.0888    0.0000 O   0  0  0  0  0  0  0  0  0  0  0  0
 22  1  1  0
  1  2  1  0
  2  3  1  0
  3  4  1  0
  4  5  1  0
  5  6  1  0
  6  7  1  0
  7  8  1  0
  7  9  1  0
 10 11  2  0
 11 12  1  0
 12 13  2  0
 13 14  1  0
 14 15  2  0
 12 16  1  0
 17 10  1  0
 17 14  1  0
 11 18  1  0
 17 19  1  0
 18 20  2  0
 20 21  1  0
 21 22  1  0
 21 23  2  0
A    8
R2
A    9
R3
A   19
R1
M  END
>  <symbol>  (741)
nC6ncee5C

>  <m_abbr>  (741)
nC6ncee5C

>  <m_type>  (741)
rna

>  <m_subtype>  (741)
natural

>  <m_RgroupIdx>  (741)
18,7,8

>  <m_Rgroups>  (741)
H,H,H

$$$$

     RDKit          2D

 23 23  0  0  0  0  0  0  0  0999 V2000
    9.2326    4.5653    0.0000 C   0  0  0  0  0  0  0  0  0  0  0  0
    7.9138    3.8036    0.0000 C   0  0  0  0  0  0  0  0  0  0  0  0
    6.5947    4.5649    0.0000 C   0  0  0  0  0  0  0  0  0  0  0  0
    5.2759    3.8032    0.0000 C   0  0  0  0  0  0  0  0  0  0  0  0
    3.9568    4.5645    0.0000 C   0  0  0  0  0  0  0  0  0  0  0  0
    2.6380    3.8028    0.0000 C   0  0  0  0  0  0  0  0  0  0  0  0
    1.3189    4.5641    0.0000 N   0  0  0  0  0  0  0  0  0  0  0  0
    0.0000    3.8024    0.0000 R#  0  0  0  0  0  0  0  0  0  0  0  0
    1.3189    6.0871    0.0000 R#  0  0  0  0  0  0  0  0  0  0  0  0
   15.8278    2.2845    0.0000 C   0  0  0  0  0  0  0  0  0  0  0  0
   15.8275    3.8052    0.0000 C   0  0  0  0  0  0  0  0  0  0  0  0
   17.1463    4.5671    0.0000 C   0  0  0  0  0  0  0  0  0  0  0  0
   18.4652    3.8056    0.0000 N   0  0  0  0  0  0  0  0  0  0  0  0
   18.4655    2.2849    0.0000 C   0  0  0  0  0  0  0  0  0  0  0  0
   19.7817    1.5207    0.0000 O   0  0  0  0  0  0  0  0  0  0  0  0
   17.1460    6.0905    0.0000 O   0  0  0  0  0  0  0  0  0  0  0  0
   17.1467    1.5230    0.0000 N   0  0  0  0  0  0  0  0  0  0  0  0
   14.5084    4.5664    0.0000 C   0  0  0  0  0  0  0  0  0  0  0  0
   17.1470    0.0000    0.0000 R#  0  0  0  0  0  0  0  0  0  0  0  0
   13.1896    3.8046    0.0000 C   0  0  0  0  0  0  0  0  0  0  0  0
   11.8705    4.5658    0.0000 C   0  0  0  0  0  0  0  0  0  0  0  0
   10.5517    3.8040    0.0000 N   0  0  0  0  0  0  0  0  0  0  0  0
   11.8705    6.0888    0.0000 O   0  0  0  0  0  0  0  0  0  0  0  0
 22  1  1  0
  1  2  1  0
  2  3  1  0
  3  4  1  0
  4  5  1  0
  5  6  1  0
  6  7  1  0
  7  8  1  0
  7  9  1  0
 10 11  2  0
 11 12  1  0
 12 13  1  0
 13 14  1  0
 14 15  2  0
 12 16  2  0
 17 10  1  0
 17 14  1  0
 11 18  1  0
 17 19  1  0
 18 20  2  0
 20 21  1  0
 21 22  1  0
 21 23  2  0
A    8
R2
A    9
R3
A   19
R1
M  END
>  <symbol>  (742)
nC6ncee5U

>  <m_abbr>  (742)
nC6ncee5U

>  <m_type>  (742)
rna

>  <m_subtype>  (742)
natural

>  <m_RgroupIdx>  (742)
18,7,8

>  <m_Rgroups>  (742)
H,H,H

$$$$

     RDKit          2D

 21 22  0  0  0  0  0  0  0  0999 V2000
    8.3806    4.0169    0.0000 C   0  0  0  0  0  0  0  0  0  0  0  0
    6.8524    4.0265    0.0000 C   0  0  0  0  0  0  0  0  0  0  0  0
    6.0965    5.3548    0.0000 C   0  0  0  0  0  0  0  0  0  0  0  0
    4.5682    5.3644    0.0000 C   0  0  0  0  0  0  0  0  0  0  0  0
    3.8124    6.6927    0.0000 C   0  0  0  0  0  0  0  0  0  0  0  0
    2.2815    6.7069    0.0000 C   0  0  0  0  0  0  0  0  0  0  0  0
    1.5283    8.0306    0.0000 N   0  0  0  0  0  0  0  0  0  0  0  0
    0.0000    8.0402    0.0000 R#  0  0  0  0  0  0  0  0  0  0  0  0
    2.3010    9.3492    0.0000 R#  0  0  0  0  0  0  0  0  0  0  0  0
   12.9953    1.9068    0.0000 C   0  0  0  0  0  0  0  0  0  0  0  0
   13.0051    3.4297    0.0000 C   0  0  0  0  0  0  0  0  0  0  0  0
   11.5597    3.9096    0.0000 N   0  0  0  0  0  0  0  0  0  0  0  0
   10.6566    2.6833    0.0000 C   0  0  0  0  0  0  0  0  0  0  0  0
   11.5439    1.4454    0.0000 N   0  0  0  0  0  0  0  0  0  0  0  0
   14.3094    1.1368    0.0000 N   0  0  0  0  0  0  0  0  0  0  0  0
   15.6332    1.8898    0.0000 C   0  0  0  0  0  0  0  0  0  0  0  0
   15.6430    3.4128    0.0000 N   0  0  0  0  0  0  0  0  0  0  0  0
   14.3289    4.1827    0.0000 C   0  0  0  0  0  0  0  0  0  0  0  0
   14.3387    5.7057    0.0000 N   0  0  0  0  0  0  0  0  0  0  0  0
   11.0639    0.0000    0.0000 R#  0  0  0  0  0  0  0  0  0  0  0  0
    9.1336    2.6931    0.0000 N   0  0  0  0  0  0  0  0  0  0  0  0
 21  1  1  0
  1  2  1  0
  2  3  1  0
  3  4  1  0
  4  5  1  0
  5  6  1  0
  6  7  1  0
  7  8  1  0
  7  9  1  0
 10 11  2  0
 11 12  1  0
 12 13  2  0
 13 14  1  0
 14 10  1  0
 10 15  1  0
 15 16  2  0
 16 17  1  0
 17 18  2  0
 18 11  1  0
 18 19  1  0
 14 20  1  0
 13 21  1  0
A    8
R2
A    9
R3
A   20
R1
M  END
>  <symbol>  (743)
nC6n8A

>  <m_abbr>  (743)
nC6n8A

>  <m_type>  (743)
rna

>  <m_subtype>  (743)
natural

>  <m_RgroupIdx>  (743)
19,7,8

>  <m_Rgroups>  (743)
H,H,H

$$$$

     RDKit          2D

 21 22  0  0  0  0  0  0  0  0999 V2000
    2.3306    1.9001    0.0000 C   0  0  0  0  0  0  0  0  0  0  0  0
    2.3404    3.4178    0.0000 C   0  0  0  0  0  0  0  0  0  0  0  0
    0.9000    3.8960    0.0000 N   0  0  0  0  0  0  0  0  0  0  0  0
    0.0000    2.6739    0.0000 C   0  0  0  0  0  0  0  0  0  0  0  0
    0.8842    1.4404    0.0000 N   0  0  0  0  0  0  0  0  0  0  0  0
    3.6401    1.1328    0.0000 N   0  0  0  0  0  0  0  0  0  0  0  0
    4.9593    1.8832    0.0000 C   0  0  0  0  0  0  0  0  0  0  0  0
    4.9691    3.4009    0.0000 N   0  0  0  0  0  0  0  0  0  0  0  0
    3.6596    4.1682    0.0000 C   0  0  0  0  0  0  0  0  0  0  0  0
    3.6694    5.6858    0.0000 O   0  0  0  0  0  0  0  0  0  0  0  0
    0.4060    0.0000    0.0000 R#  0  0  0  0  0  0  0  0  0  0  0  0
    6.2734    1.1132    0.0000 N   0  0  0  0  0  0  0  0  0  0  0  0
   16.8268    1.1164    0.0000 R#  0  0  0  0  0  0  0  0  0  0  0  0
   15.5022    3.3977    0.0000 R#  0  0  0  0  0  0  0  0  0  0  0  0
    7.5923    1.8747    0.0000 C   0  0  0  0  0  0  0  0  0  0  0  0
    8.9113    1.1132    0.0000 C   0  0  0  0  0  0  0  0  0  0  0  0
   10.2302    1.8747    0.0000 C   0  0  0  0  0  0  0  0  0  0  0  0
   11.5492    1.1132    0.0000 C   0  0  0  0  0  0  0  0  0  0  0  0
   12.8682    1.8747    0.0000 C   0  0  0  0  0  0  0  0  0  0  0  0
   14.1871    1.1132    0.0000 C   0  0  0  0  0  0  0  0  0  0  0  0
   15.5061    1.8747    0.0000 N   0  0  0  0  0  0  0  0  0  0  0  0
  1  2  2  0
  2  3  1  0
  3  4  2  0
  4  5  1  0
  5  1  1  0
  1  6  1  0
  6  7  2  0
  7  8  1  0
  8  9  1  0
  9  2  1  0
  9 10  2  0
  5 11  1  0
  7 12  1  0
 21 13  1  0
 21 14  1  0
 12 15  1  0
 15 16  1  0
 16 17  1  0
 17 18  1  0
 18 19  1  0
 19 20  1  0
 20 21  1  0
A   11
R1
A   13
R2
A   14
R3
M  END
>  <symbol>  (744)
nC6n2G

>  <m_abbr>  (744)
nC6n2G

>  <m_type>  (744)
rna

>  <m_subtype>  (744)
natural

>  <m_RgroupIdx>  (744)
10,12,13

>  <m_Rgroups>  (744)
H,H,H

$$$$

     RDKit          2D

 10 10  0  0  0  0  0  0  0  0999 V2000
    4.0295    4.1942    0.0000 C   0  0  0  0  0  0  0  0  0  0  0  0
    4.4724    2.7370    0.0000 C   0  0  0  0  0  0  0  0  0  0  0  0
    5.9952    2.7080    0.0000 C   0  0  0  0  0  0  0  0  0  0  0  0
    6.4933    4.1473    0.0000 C   0  0  0  0  0  0  0  0  0  0  0  0
    5.2784    5.0657    0.0000 O   0  0  0  0  0  0  0  0  0  0  0  0
    2.5902    4.6923    0.0000 C   0  0  0  0  0  0  0  0  0  0  0  0
    3.5540    1.5221    0.0000 O   0  0  0  0  0  0  0  0  0  0  0  0
    1.4392    3.6949    0.0000 O   0  0  0  0  0  0  0  0  0  0  0  0
    0.0000    4.1930    0.0000 R#  0  0  0  0  0  0  0  0  0  0  0  0
    3.6047    0.0000    0.0000 R#  0  0  0  0  0  0  0  0  0  0  0  0
  1  2  1  0
  2  3  1  0
  3  4  1  0
  4  5  1  0
  5  1  1  0
  1  6  1  1
  2  7  1  6
  6  8  1  0
  8  9  1  0
  7 10  1  0
A    9
R1
A   10
R2
M  END
>  <symbol>  (745)
dSp

>  <m_abbr>  (745)
dSp

>  <m_type>  (745)
rna

>  <m_subtype>  (745)
natural

>  <m_RgroupIdx>  (745)
8,9

>  <m_Rgroups>  (745)
H,H

$$$$

     RDKit          2D

 12 12  0  0  0  0  0  0  0  0999 V2000
    4.0284    4.1916    0.0000 C   0  0  0  0  0  0  0  0  0  0  0  0
    4.5050    2.7451    0.0000 C   0  0  0  0  0  0  0  0  0  0  0  0
    6.0280    2.7514    0.0000 C   0  0  0  0  0  0  0  0  0  0  0  0
    6.4926    4.2018    0.0000 C   0  0  0  0  0  0  0  0  0  0  0  0
    5.2568    5.0919    0.0000 O   0  0  0  0  0  0  0  0  0  0  0  0
    2.5780    4.6563    0.0000 C   0  0  0  0  0  0  0  0  0  0  0  0
    3.6149    1.5093    0.0000 O   0  0  0  0  0  0  0  0  0  0  0  0
    1.4504    3.6325    0.0000 O   0  0  0  0  0  0  0  0  0  0  0  0
    0.0000    4.0971    0.0000 R#  0  0  0  0  0  0  0  0  0  0  0  0
    6.9283    0.0000    0.0000 R#  0  0  0  0  0  0  0  0  0  0  0  0
    6.9283    1.5230    0.0000 O   0  0  0  0  0  0  0  0  0  0  0  0
    7.9391    4.6784    0.0000 R#  0  0  0  0  0  0  0  0  0  0  0  0
  1  2  1  0
  2  3  1  0
  3  4  1  0
  4  5  1  0
  5  1  1  0
  1  6  1  1
  2  7  1  6
  6  8  1  0
  8  9  1  0
  3 11  1  6
  4 12  1  1
 11 10  1  0
A    9
R1
A   10
R2
A   12
R3
M  END
>  <symbol>  (746)
25r

>  <m_abbr>  (746)
25r

>  <m_type>  (746)
rna

>  <m_subtype>  (746)
natural

>  <m_RgroupIdx>  (746)
8,9,11

>  <m_Rgroups>  (746)
H,H,OH

$$$$

     RDKit          2D

 12 12  0  0  0  0  0  0  0  0999 V2000
    4.0295    4.1942    0.0000 C   0  0  0  0  0  0  0  0  0  0  0  0
    4.4725    2.7370    0.0000 C   0  0  0  0  0  0  0  0  0  0  0  0
    5.9952    2.7080    0.0000 C   0  0  0  0  0  0  0  0  0  0  0  0
    6.4933    4.1473    0.0000 C   0  0  0  0  0  0  0  0  0  0  0  0
    5.2784    5.0658    0.0000 S   0  0  0  0  0  0  0  0  0  0  0  0
    2.5902    4.6923    0.0000 C   0  0  0  0  0  0  0  0  0  0  0  0
    3.5540    1.5221    0.0000 O   0  0  0  0  0  0  0  0  0  0  0  0
    1.4392    3.6949    0.0000 O   0  0  0  0  0  0  0  0  0  0  0  0
    0.0000    4.1930    0.0000 R#  0  0  0  0  0  0  0  0  0  0  0  0
    3.6047    0.0000    0.0000 R#  0  0  0  0  0  0  0  0  0  0  0  0
    6.8668    1.4591    0.0000 O   0  0  0  0  0  0  0  0  0  0  0  0
    7.9505    4.5903    0.0000 R#  0  0  0  0  0  0  0  0  0  0  0  0
  1  2  1  0
  2  3  1  0
  3  4  1  0
  4  5  1  0
  5  1  1  0
  1  6  1  1
  2  7  1  6
  6  8  1  0
  8  9  1  0
  7 10  1  0
  3 11  1  6
  4 12  1  1
A    9
R1
A   10
R2
A   12
R3
M  END
>  <symbol>  (747)
s4r

>  <m_abbr>  (747)
s4r

>  <m_type>  (747)
rna

>  <m_subtype>  (747)
natural

>  <m_RgroupIdx>  (747)
8,9,11

>  <m_Rgroups>  (747)
H,H,OH

$$$$

     RDKit          2D

 28 28  0  0  0  0  0  0  0  0999 V2000
    5.2516    8.6201    0.0000 O   0  0  0  0  0  0  0  0  0  0  0  0
    4.0237    7.7281    0.0000 C   0  0  0  0  0  0  0  0  0  0  0  0
    6.4794    7.7279    0.0000 C   0  0  0  0  0  0  0  0  0  0  0  0
    4.4925    6.2846    0.0000 C   0  0  0  0  0  0  0  0  0  0  0  0
    6.0103    6.2846    0.0000 C   0  0  0  0  0  0  0  0  0  0  0  0
    3.6004    5.0568    0.0000 O   0  0  0  0  0  0  0  0  0  0  0  0
    6.9023    5.0566    0.0000 O   0  0  0  0  0  0  0  0  0  0  0  0
    2.5803    8.1972    0.0000 C   0  0  0  0  0  0  0  0  0  0  0  0
    7.9228    8.1968    0.0000 R#  0  0  0  0  0  0  0  0  0  0  0  0
    4.2176    3.6703    0.0000 R#  0  0  0  0  0  0  0  0  0  0  0  0
    8.4117    5.2152    0.0000 C   0  0  0  0  0  0  0  0  0  0  0  0
    9.3037    3.9873    0.0000 C   0  0  0  0  0  0  0  0  0  0  0  0
   10.8131    4.1458    0.0000 O   0  0  0  0  0  0  0  0  0  0  0  0
   11.7051    2.9179    0.0000 C   0  0  0  0  0  0  0  0  0  0  0  0
   12.1234    1.4590    0.0000 C   0  0  0  0  0  0  0  0  0  0  0  0
   10.3410    2.2527    0.0000 C   0  0  0  0  0  0  0  0  0  0  0  0
   13.2145    3.0765    0.0000 C   0  0  0  0  0  0  0  0  0  0  0  0
   11.0690    0.3673    0.0000 F   0  0  0  0  0  0  0  0  0  0  0  0
   13.5960    1.0917    0.0000 F   0  0  0  0  0  0  0  0  0  0  0  0
   12.5416    0.0000    0.0000 F   0  0  0  0  0  0  0  0  0  0  0  0
   10.2350    0.7387    0.0000 F   0  0  0  0  0  0  0  0  0  0  0  0
    9.0828    3.1015    0.0000 F   0  0  0  0  0  0  0  0  0  0  0  0
    8.9768    1.5874    0.0000 F   0  0  0  0  0  0  0  0  0  0  0  0
   13.8319    4.4629    0.0000 F   0  0  0  0  0  0  0  0  0  0  0  0
   14.7239    3.2350    0.0000 F   0  0  0  0  0  0  0  0  0  0  0  0
   14.1065    1.8486    0.0000 F   0  0  0  0  0  0  0  0  0  0  0  0
    1.4484    7.1781    0.0000 O   0  0  0  0  0  0  0  0  0  0  0  0
    0.0000    7.6489    0.0000 R#  0  0  0  0  0  0  0  0  0  0  0  0
  1  2  1  0
  1  3  1  0
  2  4  1  0
  2  8  1  1
  3  5  1  0
  3  9  1  1
  4  5  1  0
  4  6  1  6
  5  7  1  6
  6 10  1  0
  7 11  1  0
 11 12  1  0
 12 13  1  0
 13 14  1  0
 14 15  1  0
 14 16  1  0
 14 17  1  0
 15 18  1  0
 15 19  1  0
 15 20  1  0
 16 21  1  0
 16 22  1  0
 16 23  1  0
 17 24  1  0
 17 25  1  0
 17 26  1  0
  8 27  1  0
 27 28  1  0
A    9
R3
A   10
R2
A   28
R1
M  END
>  <symbol>  (748)
cf33moe

>  <m_abbr>  (748)
cf33moe

>  <m_type>  (748)
rna

>  <m_subtype>  (748)
natural

>  <m_RgroupIdx>  (748)
27,9,8

>  <m_Rgroups>  (748)
H,H,OH

$$$$

     RDKit          2D

 13 14  0  0  0  0  0  0  0  0999 V2000
    3.6219    2.6695    0.0000 C   0  0  0  0  0  0  0  0  0  0  0  0
    5.9564    1.3679    0.0000 O   0  0  0  0  0  0  0  0  0  0  0  0
    4.0690    4.2992    0.0000 C   0  0  0  0  0  0  0  0  0  0  0  0
    4.4394    2.8219    0.0000 C   0  0  0  0  0  0  0  0  0  0  0  0
    5.9777    2.8086    0.0000 C   0  0  0  0  0  0  0  0  0  0  0  0
    6.5295    4.2595    0.0000 C   0  0  0  0  0  0  0  0  0  0  0  0
    5.3626    5.2365    0.0000 O   0  0  0  0  0  0  0  0  0  0  0  0
    3.9159    1.5230    0.0000 O   0  0  0  0  0  0  0  0  0  0  0  0
    2.6378    4.8201    0.0000 C   0  0  0  0  0  0  0  0  0  0  0  0
    8.0047    4.6381    0.0000 R#  0  0  0  0  0  0  0  0  0  0  0  0
    1.4711    3.8411    0.0000 O   0  0  0  0  0  0  0  0  0  0  0  0
    0.0000    4.2353    0.0000 R#  0  0  0  0  0  0  0  0  0  0  0  0
    3.9159    0.0000    0.0000 R#  0  0  0  0  0  0  0  0  0  0  0  0
  1  2  1  0
  3  4  1  0
  4  5  1  0
  5  6  1  0
  6  7  1  0
  7  3  1  0
  4  8  1  6
  3  9  1  1
  6 10  1  1
  9 11  1  0
  3  1  1  0
  5  2  1  6
 11 12  1  0
  8 13  1  0
A   10
R3
A   12
R1
A   13
R2
M  END
>  <symbol>  (749)
lna

>  <m_abbr>  (749)
lna

>  <m_type>  (749)
rna

>  <m_subtype>  (749)
natural

>  <m_RgroupIdx>  (749)
11,12,9

>  <m_Rgroups>  (749)
H,H,OH

$$$$

     RDKit          2D

 16 16  0  0  0  0  0  0  0  0999 V2000
    4.0295    7.3040    0.0000 C   0  0  0  0  0  0  0  0  0  0  0  0
    4.4725    5.8469    0.0000 C   0  0  0  0  0  0  0  0  0  0  0  0
    5.9952    5.8179    0.0000 C   0  0  0  0  0  0  0  0  0  0  0  0
    6.4933    7.2572    0.0000 C   0  0  0  0  0  0  0  0  0  0  0  0
    5.2784    8.1756    0.0000 O   0  0  0  0  0  0  0  0  0  0  0  0
    2.5902    7.8022    0.0000 C   0  0  0  0  0  0  0  0  0  0  0  0
    3.5540    4.6320    0.0000 O   0  0  0  0  0  0  0  0  0  0  0  0
    1.4392    6.8048    0.0000 O   0  0  0  0  0  0  0  0  0  0  0  0
    0.0000    7.3029    0.0000 R#  0  0  0  0  0  0  0  0  0  0  0  0
    3.6047    3.1099    0.0000 R#  0  0  0  0  0  0  0  0  0  0  0  0
    6.8668    4.5690    0.0000 O   0  0  0  0  0  0  0  0  0  0  0  0
    7.9504    7.7001    0.0000 R#  0  0  0  0  0  0  0  0  0  0  0  0
    6.8668    3.0460    0.0000 C   0  0  0  0  0  0  0  0  0  0  0  0
    8.1857    2.2845    0.0000 C   0  0  0  0  0  0  0  0  0  0  0  0
    8.1857    0.7615    0.0000 O   0  0  0  0  0  0  0  0  0  0  0  0
    9.5047    0.0000    0.0000 C   0  0  0  0  0  0  0  0  0  0  0  0
  1  2  1  0
  2  3  1  0
  3  4  1  0
  4  5  1  0
  5  1  1  0
  1  6  1  1
  2  7  1  6
  6  8  1  0
  8  9  1  0
  7 10  1  0
  3 11  1  6
  4 12  1  1
 11 13  1  0
 13 14  1  0
 14 15  1  0
 15 16  1  0
A    9
R1
A   10
R2
A   12
R3
M  END
>  <symbol>  (750)
moe

>  <m_abbr>  (750)
moe

>  <m_type>  (750)
rna

>  <m_subtype>  (750)
natural

>  <m_RgroupIdx>  (750)
8,9,11

>  <m_Rgroups>  (750)
H,H,OH

$$$$
2-(methylamino)ethanol (PHONA sugar)
     RDKit          2D

  8  7  0  0  0  0  0  0  0  0999 V2000
    2.3394    1.2000    0.0000 N   0  0  0  0  0  0  0  0  0  0  0  0
    1.0394    1.9500    0.0000 C   0  0  0  0  0  0  0  0  0  0  0  0
    0.0000    1.3503    0.0000 R#  0  0  0  0  0  0  0  0  0  0  0  0
    3.6394    1.9500    0.0000 C   0  0  0  0  0  0  0  0  0  0  0  0
    4.9394    1.2000    0.0000 C   0  0  0  0  0  0  0  0  0  0  0  0
    6.2394    1.9500    0.0000 O   0  0  0  0  0  0  0  0  0  0  0  0
    7.2788    1.3503    0.0000 R#  0  0  0  0  0  0  0  0  0  0  0  0
    2.3394    0.0000    0.0000 R#  0  0  0  0  0  0  0  0  0  0  0  0
  1  2  1  0
  2  3  1  0
  1  4  1  0
  4  5  1  0
  5  6  1  0
  6  7  1  0
  1  8  1  0
A    3
R2
A    7
R1
A    8
R3
M  END
>  <symbol>  (751)
PONA

>  <m_abbr>  (751)
PONA

>  <m_type>  (751)
rna

>  <m_subtype>  (751)
natural

>  <m_RgroupIdx>  (751)
6,2,7

>  <m_Rgroups>  (751)
H,H,H

$$$$
R Propanetriol (GNA sugar)
     RDKit          2D

  8  7  0  0  0  0  0  0  0  0999 V2000
    2.3394    2.0994    0.0000 C   0  0  0  0  0  0  0  0  0  0  0  0
    1.0394    2.8494    0.0000 C   0  0  0  0  0  0  0  0  0  0  0  0
    0.0000    2.2497    0.0000 R#  0  0  0  0  0  0  0  0  0  0  0  0
    2.3425    0.5986    0.0000 O   0  0  0  0  0  0  0  0  0  0  0  0
    3.3826    0.0000    0.0000 R#  0  0  0  0  0  0  0  0  0  0  0  0
    3.6394    2.8494    0.0000 C   0  0  0  0  0  0  0  0  0  0  0  0
    4.9394    2.0994    0.0000 O   0  0  0  0  0  0  0  0  0  0  0  0
    5.9788    2.6991    0.0000 R#  0  0  0  0  0  0  0  0  0  0  0  0
  1  2  1  6
  2  3  1  0
  1  4  1  0
  4  5  1  0
  1  6  1  0
  6  7  1  0
  7  8  1  0
A    3
R3
A    5
R2
A    8
R1
M  END
>  <symbol>  (752)
Rgna

>  <m_abbr>  (752)
Rgna

>  <m_type>  (752)
rna

>  <m_subtype>  (752)
natural

>  <m_RgroupIdx>  (752)
7,4,2

>  <m_Rgroups>  (752)
H,H,O

$$$$
S Propanetriol (GNA sugar)
     RDKit          2D

  8  7  0  0  0  0  0  0  0  0999 V2000
    2.3394    2.0994    0.0000 C   0  0  0  0  0  0  0  0  0  0  0  0
    1.0394    2.8494    0.0000 C   0  0  0  0  0  0  0  0  0  0  0  0
    0.0000    2.2497    0.0000 R#  0  0  0  0  0  0  0  0  0  0  0  0
    2.3425    0.5986    0.0000 O   0  0  0  0  0  0  0  0  0  0  0  0
    3.3826    0.0000    0.0000 R#  0  0  0  0  0  0  0  0  0  0  0  0
    3.6394    2.8494    0.0000 C   0  0  0  0  0  0  0  0  0  0  0  0
    4.9394    2.0994    0.0000 O   0  0  0  0  0  0  0  0  0  0  0  0
    5.9788    2.6991    0.0000 R#  0  0  0  0  0  0  0  0  0  0  0  0
  1  2  1  1
  2  3  1  0
  1  4  1  0
  4  5  1  0
  1  6  1  0
  6  7  1  0
  7  8  1  0
A    3
R3
A    5
R2
A    8
R1
M  END
>  <symbol>  (753)
Sgna

>  <m_abbr>  (753)
Sgna

>  <m_type>  (753)
rna

>  <m_subtype>  (753)
natural

>  <m_RgroupIdx>  (753)
7,4,2

>  <m_Rgroups>  (753)
H,H,O

$$$$

     RDKit          2D

 12 11  0  0  0  0  0  0  0  0999 V2000
    4.0283    4.1951    0.0000 C   0  0  0  0  0  0  0  0  0  0  0  0
    4.3987    2.7178    0.0000 C   0  0  0  0  0  0  0  0  0  0  0  0
    5.9369    2.7046    0.0000 C   0  0  0  0  0  0  0  0  0  0  0  0
    6.4886    4.1554    0.0000 C   0  0  0  0  0  0  0  0  0  0  0  0
    5.3233    5.1315    0.0000 O   0  0  0  0  0  0  0  0  0  0  0  0
    3.4562    1.5230    0.0000 O   0  0  0  0  0  0  0  0  0  0  0  0
    6.7541    1.4154    0.0000 O   0  0  0  0  0  0  0  0  0  0  0  0
    2.5974    4.7158    0.0000 C   0  0  0  0  0  0  0  0  0  0  0  0
    7.9637    4.5338    0.0000 R#  0  0  0  0  0  0  0  0  0  0  0  0
    1.4330    3.7318    0.0000 O   0  0  0  0  0  0  0  0  0  0  0  0
    0.0000    4.2476    0.0000 R#  0  0  0  0  0  0  0  0  0  0  0  0
    3.4562    0.0000    0.0000 R#  0  0  0  0  0  0  0  0  0  0  0  0
  1  2  1  0
  3  4  1  0
  4  5  1  0
  1  5  1  0
  2  6  1  0
  3  7  1  0
  1  8  1  0
  4  9  1  1
  8 10  1  0
 10 11  1  0
  6 12  1  0
A    9
R3
A   11
R1
A   12
R2
M  END
>  <symbol>  (754)
una

>  <m_abbr>  (754)
una

>  <m_type>  (754)
rna

>  <m_subtype>  (754)
natural

>  <m_RgroupIdx>  (754)
10,11,8

>  <m_Rgroups>  (754)
H,H,OH

$$$$

     RDKit          2D

 12 12  0  0  0  0  0  0  0  0999 V2000
    4.0295    4.1942    0.0000 C   0  0  0  0  0  0  0  0  0  0  0  0
    4.4724    2.7370    0.0000 C   0  0  0  0  0  0  0  0  0  0  0  0
    5.9952    2.7081    0.0000 C   0  0  0  0  0  0  0  0  0  0  0  0
    6.4933    4.1473    0.0000 C   0  0  0  0  0  0  0  0  0  0  0  0
    5.2784    5.0658    0.0000 O   0  0  0  0  0  0  0  0  0  0  0  0
    2.5902    4.6923    0.0000 C   0  0  0  0  0  0  0  0  0  0  0  0
    3.5540    1.5222    0.0000 O   0  0  0  0  0  0  0  0  0  0  0  0
    1.4392    3.6949    0.0000 O   0  0  0  0  0  0  0  0  0  0  0  0
    0.0000    4.1930    0.0000 R#  0  0  0  0  0  0  0  0  0  0  0  0
    3.6047    0.0000    0.0000 R#  0  0  0  0  0  0  0  0  0  0  0  0
    6.8667    1.4591    0.0000 F   0  0  0  0  0  0  0  0  0  0  0  0
    7.9504    4.5903    0.0000 R#  0  0  0  0  0  0  0  0  0  0  0  0
  1  2  1  0
  2  3  1  0
  3  4  1  0
  4  5  1  0
  5  1  1  0
  1  6  1  1
  2  7  1  6
  6  8  1  0
  8  9  1  0
  7 10  1  0
  3 11  1  1
  4 12  1  1
A    9
R1
A   10
R2
A   12
R3
M  END
>  <symbol>  (755)
fana

>  <m_abbr>  (755)
fana

>  <m_type>  (755)
rna

>  <m_subtype>  (755)
natural

>  <m_RgroupIdx>  (755)
8,9,11

>  <m_Rgroups>  (755)
H,H,OH

$$$$

     RDKit          2D

 12 12  0  0  0  0  0  0  0  0999 V2000
    4.0295    4.1942    0.0000 C   0  0  0  0  0  0  0  0  0  0  0  0
    4.4724    2.7370    0.0000 C   0  0  0  0  0  0  0  0  0  0  0  0
    5.9952    2.7080    0.0000 C   0  0  0  0  0  0  0  0  0  0  0  0
    6.4933    4.1473    0.0000 C   0  0  0  0  0  0  0  0  0  0  0  0
    5.2784    5.0657    0.0000 O   0  0  0  0  0  0  0  0  0  0  0  0
    2.5902    4.6923    0.0000 C   0  0  0  0  0  0  0  0  0  0  0  0
    3.5540    1.5221    0.0000 N   0  0  0  0  0  0  0  0  0  0  0  0
    1.4392    3.6949    0.0000 O   0  0  0  0  0  0  0  0  0  0  0  0
    0.0000    4.1930    0.0000 R#  0  0  0  0  0  0  0  0  0  0  0  0
    3.6047    0.0000    0.0000 R#  0  0  0  0  0  0  0  0  0  0  0  0
    7.9504    4.5903    0.0000 R#  0  0  0  0  0  0  0  0  0  0  0  0
    6.8668    1.4591    0.0000 O   0  0  0  0  0  0  0  0  0  0  0  0
  1  2  1  0
  2  3  1  0
  3  4  1  0
  4  5  1  0
  5  1  1  0
  1  6  1  1
  2  7  1  6
  6  8  1  0
  8  9  1  0
  7 10  1  0
  4 11  1  1
  3 12  1  6
A    9
R1
A   10
R2
A   11
R3
M  END
>  <symbol>  (756)
n3r

>  <m_abbr>  (756)
n3r

>  <m_type>  (756)
rna

>  <m_subtype>  (756)
natural

>  <m_RgroupIdx>  (756)
8,9,10

>  <m_Rgroups>  (756)
H,H,OH

$$$$

     RDKit          2D

 11 11  0  0  0  0  0  0  0  0999 V2000
    4.0295    4.1942    0.0000 C   0  0  0  0  0  0  0  0  0  0  0  0
    4.4724    2.7370    0.0000 C   0  0  0  0  0  0  0  0  0  0  0  0
    5.9952    2.7081    0.0000 C   0  0  0  0  0  0  0  0  0  0  0  0
    6.4933    4.1473    0.0000 C   0  0  0  0  0  0  0  0  0  0  0  0
    5.2784    5.0658    0.0000 O   0  0  0  0  0  0  0  0  0  0  0  0
    2.5902    4.6923    0.0000 C   0  0  0  0  0  0  0  0  0  0  0  0
    3.5540    1.5222    0.0000 O   0  0  0  0  0  0  0  0  0  0  0  0
    1.4392    3.6949    0.0000 O   0  0  0  0  0  0  0  0  0  0  0  0
    0.0000    4.1930    0.0000 R#  0  0  0  0  0  0  0  0  0  0  0  0
    3.6047    0.0000    0.0000 R#  0  0  0  0  0  0  0  0  0  0  0  0
    7.9504    4.5903    0.0000 R#  0  0  0  0  0  0  0  0  0  0  0  0
  1  2  1  0
  2  3  1  0
  3  4  1  0
  4  5  1  0
  5  1  1  0
  1  6  1  1
  2  7  1  6
  6  8  1  0
  8  9  1  0
  7 10  1  0
  4 11  1  1
A    9
R1
A   10
R2
A   11
R3
M  END
>  <symbol>  (757)
d

>  <m_abbr>  (757)
d

>  <m_type>  (757)
rna

>  <m_subtype>  (757)
natural

>  <m_RgroupIdx>  (757)
8,9,10

>  <m_Rgroups>  (757)
H,H,OH

$$$$

     RDKit          2D

 14 15  0  0  0  0  0  0  0  0999 V2000
    3.6980    2.7456    0.0000 C   0  0  0  0  0  0  0  0  0  0  0  0
    4.6270    1.6741    0.0000 C   0  0  0  0  0  0  0  0  0  0  0  0
    5.9961    1.3679    0.0000 O   0  0  0  0  0  0  0  0  0  0  0  0
    4.0690    4.2992    0.0000 C   0  0  0  0  0  0  0  0  0  0  0  0
    4.4394    2.8220    0.0000 C   0  0  0  0  0  0  0  0  0  0  0  0
    5.9777    2.8086    0.0000 C   0  0  0  0  0  0  0  0  0  0  0  0
    6.5295    4.2596    0.0000 C   0  0  0  0  0  0  0  0  0  0  0  0
    5.3626    5.2365    0.0000 O   0  0  0  0  0  0  0  0  0  0  0  0
    3.9159    1.5230    0.0000 O   0  0  0  0  0  0  0  0  0  0  0  0
    2.6378    4.8201    0.0000 C   0  0  0  0  0  0  0  0  0  0  0  0
    8.0047    4.6381    0.0000 R#  0  0  0  0  0  0  0  0  0  0  0  0
    1.4711    3.8412    0.0000 O   0  0  0  0  0  0  0  0  0  0  0  0
    0.0000    4.2353    0.0000 R#  0  0  0  0  0  0  0  0  0  0  0  0
    3.9159    0.0000    0.0000 R#  0  0  0  0  0  0  0  0  0  0  0  0
  2  1  1  0
  4  5  1  0
  5  6  1  0
  6  7  1  0
  7  8  1  0
  8  4  1  0
  5  9  1  6
  4 10  1  1
  7 11  1  1
 10 12  1  0
  4  1  1  0
  6  3  1  6
 12 13  1  0
  9 14  1  0
  3  2  1  0
A   11
R3
A   13
R1
A   14
R2
M  END
>  <symbol>  (758)
ena

>  <m_abbr>  (758)
ena

>  <m_type>  (758)
rna

>  <m_subtype>  (758)
natural

>  <m_RgroupIdx>  (758)
12,13,10

>  <m_Rgroups>  (758)
H,H,OH

$$$$

     RDKit          2D

 12 12  0  0  0  0  0  0  0  0999 V2000
    4.0765    4.7398    0.0000 O   0  0  0  0  0  0  0  0  0  0  0  0
    2.8561    3.8676    0.0000 C   0  0  0  0  0  0  0  0  0  0  0  0
    5.2831    3.8486    0.0000 C   0  0  0  0  0  0  0  0  0  0  0  0
    3.3084    2.4375    0.0000 C   0  0  0  0  0  0  0  0  0  0  0  0
    4.8083    2.4257    0.0000 C   0  0  0  0  0  0  0  0  0  0  0  0
    2.4157    1.2342    0.0000 O   0  0  0  0  0  0  0  0  0  0  0  0
    5.5060    1.4493    0.0000 F   0  0  0  0  0  0  0  0  0  0  0  0
    1.4359    4.3448    0.0000 C   0  0  0  0  0  0  0  0  0  0  0  0
    6.4272    4.2104    0.0000 R#  0  0  0  0  0  0  0  0  0  0  0  0
    1.1375    5.8156    0.0000 O   0  0  0  0  0  0  0  0  0  0  0  0
    0.0000    6.1978    0.0000 R#  0  0  0  0  0  0  0  0  0  0  0  0
    2.4039    0.0000    0.0000 R#  0  0  0  0  0  0  0  0  0  0  0  0
  1  2  1  0
  1  3  1  0
  2  4  1  0
  2  8  1  1
  3  5  1  0
  3  9  1  1
  4  5  1  0
  4  6  1  6
  5  7  1  6
  6 12  1  0
  8 10  1  0
 10 11  1  0
A    9
R3
A   11
R1
A   12
R2
M  END
>  <symbol>  (759)
fl2r

>  <m_abbr>  (759)
fl2r

>  <m_type>  (759)
rna

>  <m_subtype>  (759)
natural

>  <m_RgroupIdx>  (759)
10,11,8

>  <m_Rgroups>  (759)
H,H,OH

$$$$
hexitol
     RDKit          2D

 12 12  0  0  0  0  0  0  0  0999 V2000
    3.6373    0.7500    0.0000 O   0  0  0  0  0  0  0  0  0  0  0  0
    3.6373    2.2500    0.0000 C   0  0  0  0  0  0  0  0  0  0  0  0
    2.3383    3.0000    0.0000 C   0  0  0  0  0  0  0  0  0  0  0  0
    1.0393    2.2500    0.0000 C   0  0  0  0  0  0  0  0  0  0  0  0
    1.0393    0.7500    0.0000 C   0  0  0  0  0  0  0  0  0  0  0  0
    2.3383    0.0000    0.0000 C   0  0  0  0  0  0  0  0  0  0  0  0
    4.9386    2.9978    0.0000 C   0  0  0  0  0  0  0  0  0  0  0  0
    6.2373    2.2455    0.0000 O   0  0  0  0  0  0  0  0  0  0  0  0
    7.2778    2.8434    0.0000 R#  0  0  0  0  0  0  0  0  0  0  0  0
    2.3414    4.5008    0.0000 O   0  0  0  0  0  0  0  0  0  0  0  0
    0.0000    0.1500    0.0000 R#  0  0  0  0  0  0  0  0  0  0  0  0
    3.3815    5.0994    0.0000 R#  0  0  0  0  0  0  0  0  0  0  0  0
  1  2  1  0
  2  3  1  0
  3  4  1  0
  4  5  1  0
  5  6  1  0
  1  6  1  0
  2  7  1  1
  7  8  1  0
  8  9  1  0
  3 10  1  6
  5 11  1  1
 10 12  1  0
A    9
R1
A   11
R3
A   12
R2
M  END
>  <symbol>  (760)
hna

>  <m_abbr>  (760)
hna

>  <m_type>  (760)
rna

>  <m_subtype>  (760)
natural

>  <m_RgroupIdx>  (760)
8,11,10

>  <m_Rgroups>  (760)
H,H,OH

$$$$

     RDKit          2D

 13 14  0  0  0  0  0  0  0  0999 V2000
    3.9458    4.2992    0.0000 C   0  0  0  0  0  0  0  0  0  0  0  0
    4.3162    2.8219    0.0000 C   0  0  0  0  0  0  0  0  0  0  0  0
    5.8546    2.8085    0.0000 C   0  0  0  0  0  0  0  0  0  0  0  0
    6.4064    4.2595    0.0000 C   0  0  0  0  0  0  0  0  0  0  0  0
    5.2394    5.2364    0.0000 O   0  0  0  0  0  0  0  0  0  0  0  0
    3.7928    1.5230    0.0000 O   0  0  0  0  0  0  0  0  0  0  0  0
    7.8816    4.6381    0.0000 R#  0  0  0  0  0  0  0  0  0  0  0  0
    3.7928    0.0000    0.0000 R#  0  0  0  0  0  0  0  0  0  0  0  0
    3.9318    5.3775    0.0000 C   0  0  0  0  0  0  0  0  0  0  0  0
    5.8031    3.9370    0.0000 O   0  0  0  0  0  0  0  0  0  0  0  0
    2.4355    4.1028    0.0000 C   0  0  0  0  0  0  0  0  0  0  0  0
    1.5103    5.3125    0.0000 O   0  0  0  0  0  0  0  0  0  0  0  0
    0.0000    5.1161    0.0000 R#  0  0  0  0  0  0  0  0  0  0  0  0
  1  2  1  0
  2  3  1  0
  3  4  1  0
  4  5  1  0
  5  1  1  0
  2  6  1  1
  4  7  1  1
  6  8  1  0
  1  9  1  0
  3 10  1  1
  9 10  1  0
  1 11  1  6
 11 12  1  0
 12 13  1  0
A    7
R3
A    8
R2
A   13
R1
M  END
>  <symbol>  (761)
ALlna

>  <m_abbr>  (761)
ALlna

>  <m_type>  (761)
rna

>  <m_subtype>  (761)
natural

>  <m_RgroupIdx>  (761)
12,7,6

>  <m_Rgroups>  (761)
H,H,OH

$$$$

     RDKit          2D

 13 13  0  0  0  0  0  0  0  0999 V2000
    3.9167    4.1935    0.0000 C   0  0  0  0  0  0  0  0  0  0  0  0
    4.2872    2.7162    0.0000 C   0  0  0  0  0  0  0  0  0  0  0  0
    5.8255    2.7029    0.0000 C   0  0  0  0  0  0  0  0  0  0  0  0
    6.3773    4.1538    0.0000 C   0  0  0  0  0  0  0  0  0  0  0  0
    5.2104    5.1307    0.0000 O   0  0  0  0  0  0  0  0  0  0  0  0
    3.3407    1.5230    0.0000 O   0  0  0  0  0  0  0  0  0  0  0  0
    2.4856    4.7144    0.0000 C   0  0  0  0  0  0  0  0  0  0  0  0
    7.8525    4.5324    0.0000 R#  0  0  0  0  0  0  0  0  0  0  0  0
    1.3189    3.7354    0.0000 O   0  0  0  0  0  0  0  0  0  0  0  0
    0.0000    4.4969    0.0000 R#  0  0  0  0  0  0  0  0  0  0  0  0
    3.3407    0.0000    0.0000 R#  0  0  0  0  0  0  0  0  0  0  0  0
    6.4315    1.3056    0.0000 O   0  0  0  0  0  0  0  0  0  0  0  0
    7.9445    1.1317    0.0000 C   0  0  0  0  0  0  0  0  0  0  0  0
 12 13  1  0
  1  2  1  0
  2  3  1  0
  3  4  1  0
  4  5  1  0
  5  1  1  0
  2  6  1  6
  3 12  1  6
  1  7  1  1
  4  8  1  1
  7  9  1  0
  9 10  1  0
  6 11  1  0
A    8
R3
A   10
R1
A   11
R2
M  END
>  <symbol>  (762)
m

>  <m_abbr>  (762)
m

>  <m_type>  (762)
rna

>  <m_subtype>  (762)
natural

>  <m_RgroupIdx>  (762)
9,10,7

>  <m_Rgroups>  (762)
H,H,OH

$$$$

     RDKit          2D

 11 11  0  0  0  0  0  0  0  0999 V2000
    3.7219    4.2640    0.0000 O   0  0  0  0  0  0  0  0  0  0  0  0
    2.4149    3.4820    0.0000 C   0  0  0  0  0  0  0  0  0  0  0  0
    2.4387    1.9592    0.0000 C   0  0  0  0  0  0  0  0  0  0  0  0
    3.7693    1.2183    0.0000 N   0  0  0  0  0  0  0  0  0  0  0  0
    5.0763    2.0004    0.0000 C   0  0  0  0  0  0  0  0  0  0  0  0
    5.0525    3.5232    0.0000 C   0  0  0  0  0  0  0  0  0  0  0  0
    1.0850    4.2259    0.0000 C   0  0  0  0  0  0  0  0  0  0  0  0
    6.0981    4.1488    0.0000 R#  0  0  0  0  0  0  0  0  0  0  0  0
    1.0634    5.7497    0.0000 O   0  0  0  0  0  0  0  0  0  0  0  0
    0.0000    6.3446    0.0000 R#  0  0  0  0  0  0  0  0  0  0  0  0
    3.7884    0.0000    0.0000 R#  0  0  0  0  0  0  0  0  0  0  0  0
  1  2  1  0
  2  3  1  0
  3  4  1  0
  4  5  1  0
  5  6  1  0
  1  6  1  0
  2  7  1  1
  6  8  1  1
  7  9  1  0
  9 10  1  0
  4 11  1  0
A    8
R3
A   10
R1
A   11
R2
M  END
>  <symbol>  (763)
mph

>  <m_abbr>  (763)
mph

>  <m_type>  (763)
rna

>  <m_subtype>  (763)
natural

>  <m_RgroupIdx>  (763)
9,10,7

>  <m_Rgroups>  (763)
H,H,OH

$$$$

     RDKit          2D

 17 17  0  0  0  0  0  0  0  0999 V2000
    9.5080    0.9857    0.0000 O   0  0  0  0  0  0  0  0  0  0  0  0
    9.9786    2.4342    0.0000 C   0  0  0  0  0  0  0  0  0  0  0  0
    7.9850    0.9857    0.0000 C   0  0  0  0  0  0  0  0  0  0  0  0
    8.7465    3.3294    0.0000 C   0  0  0  0  0  0  0  0  0  0  0  0
    7.5144    2.4342    0.0000 C   0  0  0  0  0  0  0  0  0  0  0  0
    8.7497    4.8506    0.0000 O   0  0  0  0  0  0  0  0  0  0  0  0
    6.0667    2.9012    0.0000 O   0  0  0  0  0  0  0  0  0  0  0  0
   11.4264    2.9012    0.0000 C   0  0  0  0  0  0  0  0  0  0  0  0
    7.2689    0.0000    0.0000 R#  0  0  0  0  0  0  0  0  0  0  0  0
   12.5574    1.8800    0.0000 O   0  0  0  0  0  0  0  0  0  0  0  0
   13.7169    2.2541    0.0000 R#  0  0  0  0  0  0  0  0  0  0  0  0
    9.8057    5.4583    0.0000 R#  0  0  0  0  0  0  0  0  0  0  0  0
    4.9357    1.8800    0.0000 C   0  0  0  0  0  0  0  0  0  0  0  0
    3.4855    2.3479    0.0000 O   0  0  0  0  0  0  0  0  0  0  0  0
    2.3545    1.3265    0.0000 C   0  0  0  0  0  0  0  0  0  0  0  0
    0.9043    1.7944    0.0000 C   0  0  0  0  0  0  0  0  0  0  0  0
    0.0000    0.9779    0.0000 O   0  0  0  0  0  0  0  0  0  0  0  0
  1  2  1  0
  1  3  1  0
  2  4  1  0
  2  8  1  1
  3  5  1  0
  3  9  1  1
  4  5  1  0
  4  6  1  6
  5  7  1  6
  6 12  1  0
  8 10  1  0
 10 11  1  0
  7 13  1  0
 13 14  1  0
 14 15  1  0
 15 16  1  0
 16 17  1  0
A    9
R3
A   11
R1
A   12
R2
M  END
>  <symbol>  (764)
oheom2r

>  <m_abbr>  (764)
oheom2r

>  <m_type>  (764)
rna

>  <m_subtype>  (764)
natural

>  <m_RgroupIdx>  (764)
10,11,8

>  <m_Rgroups>  (764)
H,H,O

$$$$
Ribose
     RDKit          2D

 10 10  0  0  0  0  0  0  0  0999 V2000
    4.2800    0.9708    0.0000 O   0  0  0  0  0  0  0  0  0  0  0  0
    4.7435    2.3974    0.0000 C   0  0  0  0  0  0  0  0  0  0  0  0
    2.7800    0.9708    0.0000 C   0  0  0  0  0  0  0  0  0  0  0  0
    3.5300    3.2791    0.0000 C   0  0  0  0  0  0  0  0  0  0  0  0
    2.3165    2.3974    0.0000 C   0  0  0  0  0  0  0  0  0  0  0  0
    3.5331    4.7773    0.0000 O   0  0  0  0  0  0  0  0  0  0  0  0
    0.8906    2.8574    0.0000 O   0  0  0  0  0  0  0  0  0  0  0  0
    2.0747    0.0000    0.0000 R#  0  0  0  0  0  0  0  0  0  0  0  0
    4.5732    5.3758    0.0000 R#  0  0  0  0  0  0  0  0  0  0  0  0
    0.0000    2.0532    0.0000 R#  0  0  0  0  0  0  0  0  0  0  0  0
  1  2  1  0
  1  3  1  0
  2  4  1  0
  3  5  1  0
  3  8  1  1
  4  5  1  0
  4  6  1  1
  5  7  1  6
  6  9  1  0
  7 10  1  0
A    8
R3
A    9
R1
A   10
R2
M  END
>  <symbol>  (765)
tna

>  <m_abbr>  (765)
tna

>  <m_type>  (765)
rna

>  <m_subtype>  (765)
natural

>  <m_RgroupIdx>  (765)
8,9,7

>  <m_Rgroups>  (765)
H,H,OH

$$$$

     RDKit          2D

 14 14  0  0  0  0  0  0  0  0999 V2000
    4.5690    5.4799    0.0000 O   0  0  0  0  0  0  0  0  0  0  0  0
    3.8075    4.1609    0.0000 C   0  0  0  0  0  0  0  0  0  0  0  0
    4.5690    2.8420    0.0000 C   0  0  0  0  0  0  0  0  0  0  0  0
    6.0920    2.8420    0.0000 C   0  0  0  0  0  0  0  0  0  0  0  0
    6.8535    4.1609    0.0000 C   0  0  0  0  0  0  0  0  0  0  0  0
    6.0920    5.4799    0.0000 C   0  0  0  0  0  0  0  0  0  0  0  0
    8.3765    4.1609    0.0000 R#  0  0  0  0  0  0  0  0  0  0  0  0
    6.8535    1.5230    0.0000 O   0  0  0  0  0  0  0  0  0  0  0  0
    3.8075    1.5230    0.0000 O   0  0  0  0  0  0  0  0  0  0  0  0
    2.2845    4.1609    0.0000 C   0  0  0  0  0  0  0  0  0  0  0  0
    1.5230    2.8420    0.0000 O   0  0  0  0  0  0  0  0  0  0  0  0
    3.8075    0.0000    0.0000 R#  0  0  0  0  0  0  0  0  0  0  0  0
    0.0000    2.8420    0.0000 R#  0  0  0  0  0  0  0  0  0  0  0  0
    6.8535    0.0000    0.0000 C   0  0  0  0  0  0  0  0  0  0  0  0
  1  2  1  0
  2  3  1  0
  3  4  1  0
  4  5  1  0
  5  6  1  0
  6  1  1  0
  5  7  1  1
  4  8  1  6
  3  9  1  6
  2 10  1  1
 10 11  1  0
  9 12  1  0
 11 13  1  0
  8 14  1  0
A    7
R3
A   12
R2
A   13
R1
M  END
>  <symbol>  (766)
m3ana

>  <m_abbr>  (766)
m3ana

>  <m_type>  (766)
rna

>  <m_subtype>  (766)
natural

>  <m_RgroupIdx>  (766)
12,11,6

>  <m_Rgroups>  (766)
H,H,OH

$$$$

     RDKit          2D

 14 15  0  0  0  0  0  0  0  0999 V2000
    3.6219    2.8416    0.0000 C   0  0  0  0  0  0  0  0  0  0  0  0
    5.9564    1.5401    0.0000 C   0  0  0  0  0  0  0  0  0  0  0  0
    4.0690    4.4714    0.0000 C   0  0  0  0  0  0  0  0  0  0  0  0
    4.4394    2.9941    0.0000 C   0  0  0  0  0  0  0  0  0  0  0  0
    5.9778    2.9807    0.0000 C   0  0  0  0  0  0  0  0  0  0  0  0
    6.5296    4.4317    0.0000 C   0  0  0  0  0  0  0  0  0  0  0  0
    5.3626    5.4086    0.0000 O   0  0  0  0  0  0  0  0  0  0  0  0
    2.6378    4.9923    0.0000 C   0  0  0  0  0  0  0  0  0  0  0  0
    8.0048    4.8103    0.0000 R#  0  0  0  0  0  0  0  0  0  0  0  0
    1.4712    4.0133    0.0000 O   0  0  0  0  0  0  0  0  0  0  0  0
    0.0000    4.4075    0.0000 R#  0  0  0  0  0  0  0  0  0  0  0  0
    4.0452    1.5230    0.0000 O   0  0  0  0  0  0  0  0  0  0  0  0
    4.0452    0.0000    0.0000 R#  0  0  0  0  0  0  0  0  0  0  0  0
    7.4649    1.3301    0.0000 C   0  0  0  0  0  0  0  0  0  0  0  0
  1  2  1  0
  3  4  1  0
  4  5  1  0
  5  6  1  6
  6  7  1  0
  3  7  1  0
  3  8  1  1
  6  9  1  1
  8 10  1  0
  3  1  1  0
  5  2  1  0
 10 11  1  0
  4 12  1  6
 12 13  1  0
  2 14  1  6
A    9
R3
A   11
R1
A   13
R2
M  END
>  <symbol>  (767)
Rmclna

>  <m_abbr>  (767)
Rmclna

>  <m_type>  (767)
rna

>  <m_subtype>  (767)
natural

>  <m_RgroupIdx>  (767)
10,12,8

>  <m_Rgroups>  (767)
H,H,OH

$$$$

     RDKit          2D

 14 15  0  0  0  0  0  0  0  0999 V2000
    3.6219    2.8417    0.0000 C   0  0  0  0  0  0  0  0  0  0  0  0
    5.9564    1.5401    0.0000 C   0  0  0  0  0  0  0  0  0  0  0  0
    4.0690    4.4714    0.0000 C   0  0  0  0  0  0  0  0  0  0  0  0
    4.4394    2.9941    0.0000 C   0  0  0  0  0  0  0  0  0  0  0  0
    5.9777    2.9808    0.0000 C   0  0  0  0  0  0  0  0  0  0  0  0
    6.5295    4.4317    0.0000 C   0  0  0  0  0  0  0  0  0  0  0  0
    5.3626    5.4087    0.0000 O   0  0  0  0  0  0  0  0  0  0  0  0
    2.6378    4.9923    0.0000 C   0  0  0  0  0  0  0  0  0  0  0  0
    8.0047    4.8103    0.0000 R#  0  0  0  0  0  0  0  0  0  0  0  0
    1.4711    4.0133    0.0000 O   0  0  0  0  0  0  0  0  0  0  0  0
    0.0000    4.4075    0.0000 R#  0  0  0  0  0  0  0  0  0  0  0  0
    4.0452    1.5230    0.0000 O   0  0  0  0  0  0  0  0  0  0  0  0
    4.0452    0.0000    0.0000 R#  0  0  0  0  0  0  0  0  0  0  0  0
    5.5622    0.0690    0.0000 C   0  0  0  0  0  0  0  0  0  0  0  0
  1  2  1  0
  3  4  1  0
  4  5  1  0
  5  6  1  6
  6  7  1  0
  3  7  1  0
  3  8  1  1
  6  9  1  1
  8 10  1  0
  3  1  1  0
  5  2  1  0
 10 11  1  0
  4 12  1  6
 12 13  1  0
  2 14  1  1
A    9
R3
A   11
R1
A   13
R2
M  END
>  <symbol>  (768)
Smclna

>  <m_abbr>  (768)
Smclna

>  <m_type>  (768)
rna

>  <m_subtype>  (768)
natural

>  <m_RgroupIdx>  (768)
10,12,8

>  <m_Rgroups>  (768)
H,H,OH

$$$$

     RDKit          2D

 30 30  0  0  0  0  0  0  0  0999 V2000
    3.9169   13.3287    0.0000 C   0  0  0  0  0  0  0  0  0  0  0  0
    4.2873   11.8514    0.0000 C   0  0  0  0  0  0  0  0  0  0  0  0
    5.8256   11.8381    0.0000 C   0  0  0  0  0  0  0  0  0  0  0  0
    6.3774   13.2890    0.0000 C   0  0  0  0  0  0  0  0  0  0  0  0
    5.2105   14.2659    0.0000 O   0  0  0  0  0  0  0  0  0  0  0  0
    3.3408   10.6583    0.0000 O   0  0  0  0  0  0  0  0  0  0  0  0
    2.4857   13.8496    0.0000 C   0  0  0  0  0  0  0  0  0  0  0  0
    7.8526   13.6676    0.0000 R#  0  0  0  0  0  0  0  0  0  0  0  0
    1.3190   12.8706    0.0000 O   0  0  0  0  0  0  0  0  0  0  0  0
    0.0000   13.6321    0.0000 R#  0  0  0  0  0  0  0  0  0  0  0  0
    3.3408    9.1352    0.0000 R#  0  0  0  0  0  0  0  0  0  0  0  0
    6.6398   10.5516    0.0000 O   0  0  0  0  0  0  0  0  0  0  0  0
   10.4473    9.2327    0.0000 C   0  0  0  0  0  0  0  0  0  0  0  0
    8.9243    9.2327    0.0000 C   0  0  0  0  0  0  0  0  0  0  0  0
    8.1628   10.5516    0.0000 C   0  0  0  0  0  0  0  0  0  0  0  0
   11.2088    7.9137    0.0000 C   0  0  0  0  0  0  0  0  0  0  0  0
   12.7318    7.9137    0.0000 C   0  0  0  0  0  0  0  0  0  0  0  0
   13.4933    6.5947    0.0000 C   0  0  0  0  0  0  0  0  0  0  0  0
   15.0163    6.5947    0.0000 N   0  0  0  0  0  0  0  0  0  0  0  0
   15.7778    5.2758    0.0000 C   0  0  0  0  0  0  0  0  0  0  0  0
   17.3008    5.2758    0.0000 C   0  0  0  0  0  0  0  0  0  0  0  0
   18.0623    3.9568    0.0000 C   0  0  0  0  0  0  0  0  0  0  0  0
   19.5853    3.9568    0.0000 C   0  0  0  0  0  0  0  0  0  0  0  0
   20.3468    2.6379    0.0000 C   0  0  0  0  0  0  0  0  0  0  0  0
   21.8698    2.6379    0.0000 C   0  0  0  0  0  0  0  0  0  0  0  0
   22.6313    1.3189    0.0000 C   0  0  0  0  0  0  0  0  0  0  0  0
   24.1543    1.3189    0.0000 C   0  0  0  0  0  0  0  0  0  0  0  0
   24.9158    0.0000    0.0000 C   0  0  0  0  0  0  0  0  0  0  0  0
   26.4388    0.0000    0.0000 C   0  0  0  0  0  0  0  0  0  0  0  0
   15.0163    3.9568    0.0000 O   0  0  0  0  0  0  0  0  0  0  0  0
  1  2  1  0
  2  3  1  0
  3  4  1  0
  4  5  1  0
  5  1  1  0
  2  6  1  6
  3 12  1  6
  1  7  1  1
  4  8  1  1
  7  9  1  0
  9 10  1  0
  6 11  1  0
 14 15  1  0
 13 14  1  0
 12 15  1  0
 13 16  1  0
 16 17  1  0
 17 18  1  0
 18 19  1  0
 19 20  1  0
 20 21  1  0
 21 22  1  0
 22 23  1  0
 23 24  1  0
 24 25  1  0
 25 26  1  0
 26 27  1  0
 27 28  1  0
 28 29  1  0
 20 30  2  0
A    8
R3
A   10
R1
A   11
R2
M  END
>  <symbol>  (769)
C10oylnC62r

>  <m_abbr>  (769)
C10oylnC62r

>  <m_type>  (769)
rna

>  <m_subtype>  (769)
natural

>  <m_RgroupIdx>  (769)
9,10,7

>  <m_Rgroups>  (769)
H,H,OH

$$$$

     RDKit          2D

 36 36  0  0  0  0  0  0  0  0999 V2000
    3.9318    6.7241    0.0000 C   0  0  0  0  0  0  0  0  0  0  0  0
    4.3106    5.2435    0.0000 C   0  0  0  0  0  0  0  0  0  0  0  0
    5.8544    5.2375    0.0000 C   0  0  0  0  0  0  0  0  0  0  0  0
    6.3973    6.6860    0.0000 C   0  0  0  0  0  0  0  0  0  0  0  0
    5.2255    7.6709    0.0000 O   0  0  0  0  0  0  0  0  0  0  0  0
    3.3665    4.0417    0.0000 O   0  0  0  0  0  0  0  0  0  0  0  0
    2.4932    7.2400    0.0000 C   0  0  0  0  0  0  0  0  0  0  0  0
    7.8796    7.0831    0.0000 R#  0  0  0  0  0  0  0  0  0  0  0  0
    1.3272    6.2520    0.0000 O   0  0  0  0  0  0  0  0  0  0  0  0
    0.0000    7.0099    0.0000 R#  0  0  0  0  0  0  0  0  0  0  0  0
    3.3738    2.5134    0.0000 R#  0  0  0  0  0  0  0  0  0  0  0  0
    6.6775    3.9505    0.0000 O   0  0  0  0  0  0  0  0  0  0  0  0
   10.4992    2.6379    0.0000 C   0  0  0  0  0  0  0  0  0  0  0  0
    8.9762    2.6379    0.0000 C   0  0  0  0  0  0  0  0  0  0  0  0
    8.2058    3.9578    0.0000 C   0  0  0  0  0  0  0  0  0  0  0  0
   11.2607    1.3190    0.0000 C   0  0  0  0  0  0  0  0  0  0  0  0
   12.7837    1.3190    0.0000 C   0  0  0  0  0  0  0  0  0  0  0  0
   13.5452    0.0000    0.0000 C   0  0  0  0  0  0  0  0  0  0  0  0
   15.0682    0.0000    0.0000 N   0  0  0  0  0  0  0  0  0  0  0  0
   15.8297    1.3190    0.0000 C   0  0  0  0  0  0  0  0  0  0  0  0
   15.0682    2.6379    0.0000 O   0  0  0  0  0  0  0  0  0  0  0  0
   17.3527    1.3190    0.0000 C   0  0  0  0  0  0  0  0  0  0  0  0
   18.1142    2.6379    0.0000 C   0  0  0  0  0  0  0  0  0  0  0  0
   19.6372    2.6379    0.0000 C   0  0  0  0  0  0  0  0  0  0  0  0
   20.3987    3.9568    0.0000 C   0  0  0  0  0  0  0  0  0  0  0  0
   21.9217    3.9568    0.0000 C   0  0  0  0  0  0  0  0  0  0  0  0
   22.6832    5.2758    0.0000 C   0  0  0  0  0  0  0  0  0  0  0  0
   24.2062    5.2758    0.0000 C   0  0  0  0  0  0  0  0  0  0  0  0
   24.9677    6.5948    0.0000 C   0  0  0  0  0  0  0  0  0  0  0  0
   26.4907    6.5948    0.0000 C   0  0  0  0  0  0  0  0  0  0  0  0
   27.2522    7.9137    0.0000 C   0  0  0  0  0  0  0  0  0  0  0  0
   28.7752    7.9137    0.0000 C   0  0  0  0  0  0  0  0  0  0  0  0
   29.5367    9.2327    0.0000 C   0  0  0  0  0  0  0  0  0  0  0  0
   31.0597    9.2327    0.0000 C   0  0  0  0  0  0  0  0  0  0  0  0
   31.8212   10.5516    0.0000 C   0  0  0  0  0  0  0  0  0  0  0  0
   33.3442   10.5516    0.0000 C   0  0  0  0  0  0  0  0  0  0  0  0
  1  2  1  0
  2  3  1  0
  3  4  1  0
  4  5  1  0
  5  1  1  0
  2  6  1  6
  3 12  1  6
  1  7  1  1
  4  8  1  1
  7  9  1  0
  9 10  1  0
  6 11  1  0
 14 15  1  0
 13 14  1  0
 12 15  1  0
 13 16  1  0
 16 17  1  0
 17 18  1  0
 18 19  1  0
 19 20  1  0
 20 21  2  0
 22 20  1  0
 23 22  1  0
 24 23  1  0
 25 24  1  0
 26 25  1  0
 27 26  1  0
 28 27  1  0
 29 28  1  0
 30 29  1  0
 30 31  1  0
 31 32  1  0
 32 33  1  0
 33 34  1  0
 34 35  1  0
 35 36  1  0
A    8
R3
A   10
R1
A   11
R2
M  END
>  <symbol>  (770)
C16oylnC62r

>  <m_abbr>  (770)
C16oylnC62r

>  <m_type>  (770)
rna

>  <m_subtype>  (770)
natural

>  <m_RgroupIdx>  (770)
9,10,7

>  <m_Rgroups>  (770)
H,H,OH

$$$$

     RDKit          2D

 52 56  0  0  0  0  0  0  0  0999 V2000
   18.0703   13.8649    0.0000 C   0  0  0  0  0  0  0  0  0  0  0  0
   19.5933   13.8743    0.0000 C   0  0  0  0  0  0  0  0  0  0  0  0
   20.3629   12.5600    0.0000 C   0  0  0  0  0  0  0  0  0  0  0  0
   17.3170   12.5412    0.0000 C   0  0  0  0  0  0  0  0  0  0  0  0
   18.0867   11.2270    0.0000 C   0  0  0  0  0  0  0  0  0  0  0  0
   17.3333    9.9033    0.0000 C   0  0  0  0  0  0  0  0  0  0  0  0
   18.1030    8.5891    0.0000 C   0  0  0  0  0  0  0  0  0  0  0  0
   19.6259    8.5985    0.0000 C   0  0  0  0  0  0  0  0  0  0  0  0
   20.3929    7.2889    0.0000 C   0  0  0  0  0  0  0  0  0  0  0  0
   19.9339    5.8330    0.0000 C   0  0  0  0  0  0  0  0  0  0  0  0
   21.1716    4.9454    0.0000 C   0  0  0  0  0  0  0  0  0  0  0  0
   22.3981    5.8482    0.0000 C   0  0  0  0  0  0  0  0  0  0  0  0
   23.8495    5.3866    0.0000 C   0  0  0  0  0  0  0  0  0  0  0  0
   24.1753    3.8988    0.0000 C   0  0  0  0  0  0  0  0  0  0  0  0
   25.6267    3.4371    0.0000 C   0  0  0  0  0  0  0  0  0  0  0  0
   25.9525    1.9494    0.0000 C   0  0  0  0  0  0  0  0  0  0  0  0
   27.4039    1.4878    0.0000 C   0  0  0  0  0  0  0  0  0  0  0  0
   28.4741    2.5713    0.0000 C   0  0  0  0  0  0  0  0  0  0  0  0
   27.7297    0.0000    0.0000 C   0  0  0  0  0  0  0  0  0  0  0  0
   24.9197    6.4701    0.0000 C   0  0  0  0  0  0  0  0  0  0  0  0
   21.9186    7.2937    0.0000 C   0  0  0  0  0  0  0  0  0  0  0  0
   23.4415    7.3032    0.0000 C   0  0  0  0  0  0  0  0  0  0  0  0
   22.6719    8.6174    0.0000 C   0  0  0  0  0  0  0  0  0  0  0  0
   21.9022    9.9316    0.0000 C   0  0  0  0  0  0  0  0  0  0  0  0
   20.3793    9.9222    0.0000 C   0  0  0  0  0  0  0  0  0  0  0  0
   19.6096   11.2364    0.0000 C   0  0  0  0  0  0  0  0  0  0  0  0
   21.1326   11.2458    0.0000 C   0  0  0  0  0  0  0  0  0  0  0  0
   18.8563    9.9128    0.0000 H   0  0  0  0  0  0  0  0  0  0  0  0
   21.1489    8.6080    0.0000 H   0  0  0  0  0  0  0  0  0  0  0  0
   18.8726    7.2749    0.0000 H   0  0  0  0  0  0  0  0  0  0  0  0
    3.9168   23.2320    0.0000 C   0  0  0  0  0  0  0  0  0  0  0  0
    4.2872   21.7547    0.0000 C   0  0  0  0  0  0  0  0  0  0  0  0
    5.8256   21.7414    0.0000 C   0  0  0  0  0  0  0  0  0  0  0  0
    6.3773   23.1923    0.0000 C   0  0  0  0  0  0  0  0  0  0  0  0
    5.2104   24.1692    0.0000 O   0  0  0  0  0  0  0  0  0  0  0  0
    3.3407   20.5615    0.0000 O   0  0  0  0  0  0  0  0  0  0  0  0
    2.4856   23.7529    0.0000 C   0  0  0  0  0  0  0  0  0  0  0  0
    7.8526   23.5709    0.0000 R#  0  0  0  0  0  0  0  0  0  0  0  0
    1.3190   22.7739    0.0000 O   0  0  0  0  0  0  0  0  0  0  0  0
    0.0000   23.5354    0.0000 R#  0  0  0  0  0  0  0  0  0  0  0  0
    3.3407   19.0385    0.0000 R#  0  0  0  0  0  0  0  0  0  0  0  0
    6.6397   20.4549    0.0000 O   0  0  0  0  0  0  0  0  0  0  0  0
   10.4472   19.1360    0.0000 C   0  0  0  0  0  0  0  0  0  0  0  0
    8.9242   19.1360    0.0000 C   0  0  0  0  0  0  0  0  0  0  0  0
    8.1627   20.4549    0.0000 C   0  0  0  0  0  0  0  0  0  0  0  0
   11.2087   17.8170    0.0000 C   0  0  0  0  0  0  0  0  0  0  0  0
   12.7317   17.8170    0.0000 C   0  0  0  0  0  0  0  0  0  0  0  0
   13.4932   16.4980    0.0000 C   0  0  0  0  0  0  0  0  0  0  0  0
   15.0162   16.4980    0.0000 N   0  0  0  0  0  0  0  0  0  0  0  0
   15.7777   15.1791    0.0000 C   0  0  0  0  0  0  0  0  0  0  0  0
   17.3007   15.1791    0.0000 O   0  0  0  0  0  0  0  0  0  0  0  0
   15.0162   13.8601    0.0000 O   0  0  0  0  0  0  0  0  0  0  0  0
  1  2  1  0
  2  3  1  0
  1  4  1  0
  4  5  1  0
  5  6  2  0
  6  7  1  0
  7  8  1  0
  8  9  1  0
  9 10  1  0
 10 11  1  0
 12 11  1  1
 12 13  1  0
 13 14  1  0
 14 15  1  0
 15 16  1  0
 16 17  1  0
 17 18  1  0
 17 19  1  0
 13 20  1  6
 12 21  1  0
  9 21  1  0
 21 22  1  1
 21 23  1  0
 23 24  1  0
 24 25  1  0
  8 25  1  0
 25 26  1  0
  3 26  1  0
  5 26  1  0
 26 27  1  1
  1 51  1  1
 25 28  1  6
  8 29  1  1
  9 30  1  6
 31 32  1  0
 32 33  1  0
 33 34  1  0
 34 35  1  0
 35 31  1  0
 32 36  1  6
 33 42  1  6
 31 37  1  1
 34 38  1  1
 37 39  1  0
 39 40  1  0
 36 41  1  0
 44 45  1  0
 43 44  1  0
 42 45  1  0
 43 46  1  0
 46 47  1  0
 47 48  1  0
 48 49  1  0
 49 50  1  0
 50 51  1  0
 50 52  2  0
A   38
R3
A   40
R1
A   41
R2
M  END
>  <symbol>  (771)
cholcnC62r

>  <m_abbr>  (771)
cholcnC62r

>  <m_type>  (771)
rna

>  <m_subtype>  (771)
natural

>  <m_RgroupIdx>  (771)
39,40,37

>  <m_Rgroups>  (771)
H,H,OH

$$$$

     RDKit          2D

 14 15  0  0  0  0  0  0  0  0999 V2000
    3.6219    2.8416    0.0000 C   0  0  0  0  0  0  0  0  0  0  0  0
    5.9564    1.5401    0.0000 N   0  0  0  0  0  0  0  0  0  0  0  0
    4.0689    4.4714    0.0000 C   0  0  0  0  0  0  0  0  0  0  0  0
    4.4394    2.9941    0.0000 C   0  0  0  0  0  0  0  0  0  0  0  0
    5.9777    2.9808    0.0000 C   0  0  0  0  0  0  0  0  0  0  0  0
    6.5295    4.4317    0.0000 C   0  0  0  0  0  0  0  0  0  0  0  0
    5.3626    5.4087    0.0000 O   0  0  0  0  0  0  0  0  0  0  0  0
    2.6378    4.9923    0.0000 C   0  0  0  0  0  0  0  0  0  0  0  0
    8.0047    4.8103    0.0000 R#  0  0  0  0  0  0  0  0  0  0  0  0
    1.4711    4.0133    0.0000 O   0  0  0  0  0  0  0  0  0  0  0  0
    0.0000    4.4075    0.0000 R#  0  0  0  0  0  0  0  0  0  0  0  0
    4.0452    1.5230    0.0000 O   0  0  0  0  0  0  0  0  0  0  0  0
    4.0452    0.0000    0.0000 R#  0  0  0  0  0  0  0  0  0  0  0  0
    6.7180    0.2212    0.0000 C   0  0  0  0  0  0  0  0  0  0  0  0
  1  2  1  0
  3  4  1  0
  4  5  1  0
  5  6  1  0
  6  7  1  0
  3  7  1  0
  3  8  1  1
  6  9  1  1
  8 10  1  0
  3  1  1  0
  5  2  1  6
 10 11  1  0
  4 12  1  6
 12 13  1  0
  2 14  1  0
A    9
R3
A   11
R1
A   13
R2
M  END
>  <symbol>  (772)
mn2lna

>  <m_abbr>  (772)
mn2lna

>  <m_type>  (772)
rna

>  <m_subtype>  (772)
natural

>  <m_RgroupIdx>  (772)
10,12,8

>  <m_Rgroups>  (772)
H,H,OH

$$$$

     RDKit          2D

 15 16  0  0  0  0  0  0  0  0999 V2000
    3.8320    2.9940    0.0000 C   0  0  0  0  0  0  0  0  0  0  0  0
    5.3550    2.9940    0.0000 C   0  0  0  0  0  0  0  0  0  0  0  0
    5.8256    4.4426    0.0000 C   0  0  0  0  0  0  0  0  0  0  0  0
    4.5935    5.3377    0.0000 O   0  0  0  0  0  0  0  0  0  0  0  0
    3.3615    4.4426    0.0000 C   0  0  0  0  0  0  0  0  0  0  0  0
    2.6000    5.7614    0.0000 C   0  0  0  0  0  0  0  0  0  0  0  0
    1.0770    5.7614    0.0000 O   0  0  0  0  0  0  0  0  0  0  0  0
    3.4379    1.5230    0.0000 O   0  0  0  0  0  0  0  0  0  0  0  0
    6.5871    5.7614    0.0000 R#  0  0  0  0  0  0  0  0  0  0  0  0
    2.9685    2.9766    0.0000 C   0  0  0  0  0  0  0  0  0  0  0  0
    5.3575    1.5230    0.0000 N   0  0  0  0  0  0  0  0  0  0  0  0
    1.4960    2.5773    0.0000 C   0  0  0  0  0  0  0  0  0  0  0  0
    6.1163    0.2087    0.0000 C   0  0  0  0  0  0  0  0  0  0  0  0
    0.0000    6.8383    0.0000 R#  0  0  0  0  0  0  0  0  0  0  0  0
    3.4379    0.0000    0.0000 R#  0  0  0  0  0  0  0  0  0  0  0  0
  1  2  1  0
  2  3  1  0
  3  4  1  0
  5  4  1  0
  5  1  1  0
  5  6  1  1
  6  7  1  0
  3  9  1  1
  5 10  1  0
  2 11  1  6
 10 11  1  0
  1  8  1  6
 10 12  1  1
 11 13  1  0
  7 14  1  0
  8 15  1  0
A    9
R3
A   14
R1
A   15
R2
M  END
>  <symbol>  (773)
Smn2cet

>  <m_abbr>  (773)
Smn2cet

>  <m_type>  (773)
rna

>  <m_subtype>  (773)
natural

>  <m_RgroupIdx>  (773)
13,14,8

>  <m_Rgroups>  (773)
H,H,OH

$$$$

     RDKit          2D

 15 16  0  0  0  0  0  0  0  0999 V2000
    3.8320    2.9939    0.0000 C   0  0  0  0  0  0  0  0  0  0  0  0
    5.3550    2.9939    0.0000 C   0  0  0  0  0  0  0  0  0  0  0  0
    5.8255    4.4425    0.0000 C   0  0  0  0  0  0  0  0  0  0  0  0
    4.5935    5.3377    0.0000 O   0  0  0  0  0  0  0  0  0  0  0  0
    3.3614    4.4425    0.0000 C   0  0  0  0  0  0  0  0  0  0  0  0
    2.5999    5.7614    0.0000 C   0  0  0  0  0  0  0  0  0  0  0  0
    1.0769    5.7614    0.0000 O   0  0  0  0  0  0  0  0  0  0  0  0
    3.4378    1.5230    0.0000 O   0  0  0  0  0  0  0  0  0  0  0  0
    6.5870    5.7614    0.0000 R#  0  0  0  0  0  0  0  0  0  0  0  0
    2.9685    2.9765    0.0000 C   0  0  0  0  0  0  0  0  0  0  0  0
    5.3575    1.5230    0.0000 N   0  0  0  0  0  0  0  0  0  0  0  0
    1.4960    2.5773    0.0000 C   0  0  0  0  0  0  0  0  0  0  0  0
    6.1163    0.2086    0.0000 C   0  0  0  0  0  0  0  0  0  0  0  0
    0.0000    6.8383    0.0000 R#  0  0  0  0  0  0  0  0  0  0  0  0
    3.4378    0.0000    0.0000 R#  0  0  0  0  0  0  0  0  0  0  0  0
  1  2  1  0
  2  3  1  0
  3  4  1  0
  5  4  1  0
  5  1  1  0
  5  6  1  1
  6  7  1  0
  3  9  1  1
  5 10  1  0
  2 11  1  6
 10 11  1  0
  1  8  1  6
 10 12  1  6
 11 13  1  0
  7 14  1  0
  8 15  1  0
A    9
R3
A   14
R1
A   15
R2
M  END
>  <symbol>  (774)
Rmn2cet

>  <m_abbr>  (774)
Rmn2cet

>  <m_type>  (774)
rna

>  <m_subtype>  (774)
natural

>  <m_RgroupIdx>  (774)
13,14,8

>  <m_Rgroups>  (774)
H,H,OH

$$$$

     RDKit          2D

 14 15  0  0  0  0  0  0  0  0999 V2000
    3.8320    2.9939    0.0000 C   0  0  0  0  0  0  0  0  0  0  0  0
    5.3550    2.9939    0.0000 C   0  0  0  0  0  0  0  0  0  0  0  0
    5.8256    4.4425    0.0000 C   0  0  0  0  0  0  0  0  0  0  0  0
    4.5935    5.3377    0.0000 O   0  0  0  0  0  0  0  0  0  0  0  0
    3.3614    4.4425    0.0000 C   0  0  0  0  0  0  0  0  0  0  0  0
    2.5999    5.7614    0.0000 C   0  0  0  0  0  0  0  0  0  0  0  0
    1.0769    5.7614    0.0000 O   0  0  0  0  0  0  0  0  0  0  0  0
    3.4379    1.5230    0.0000 O   0  0  0  0  0  0  0  0  0  0  0  0
    6.5871    5.7614    0.0000 R#  0  0  0  0  0  0  0  0  0  0  0  0
    2.9685    2.9765    0.0000 C   0  0  0  0  0  0  0  0  0  0  0  0
    5.3575    1.5230    0.0000 S   0  0  0  0  0  0  0  0  0  0  0  0
    1.4960    2.5773    0.0000 C   0  0  0  0  0  0  0  0  0  0  0  0
    0.0000    6.8383    0.0000 R#  0  0  0  0  0  0  0  0  0  0  0  0
    3.4379    0.0000    0.0000 R#  0  0  0  0  0  0  0  0  0  0  0  0
  1  2  1  0
  2  3  1  0
  3  4  1  0
  5  4  1  0
  5  1  1  0
  5  6  1  1
  6  7  1  0
  3  9  1  1
  5 10  1  0
  2 11  1  6
 10 11  1  0
  1  8  1  6
 10 12  1  1
  7 13  1  0
  8 14  1  0
A    9
R3
A   13
R1
A   14
R2
M  END
>  <symbol>  (775)
Ss2cEt

>  <m_abbr>  (775)
Ss2cEt

>  <m_type>  (775)
rna

>  <m_subtype>  (775)
natural

>  <m_RgroupIdx>  (775)
12,13,8

>  <m_Rgroups>  (775)
H,H,OH

$$$$

     RDKit          2D

 14 15  0  0  0  0  0  0  0  0999 V2000
    3.8320    2.9940    0.0000 C   0  0  0  0  0  0  0  0  0  0  0  0
    5.3550    2.9940    0.0000 C   0  0  0  0  0  0  0  0  0  0  0  0
    5.8256    4.4426    0.0000 C   0  0  0  0  0  0  0  0  0  0  0  0
    4.5935    5.3377    0.0000 O   0  0  0  0  0  0  0  0  0  0  0  0
    3.3614    4.4426    0.0000 C   0  0  0  0  0  0  0  0  0  0  0  0
    2.5999    5.7614    0.0000 C   0  0  0  0  0  0  0  0  0  0  0  0
    1.0769    5.7614    0.0000 O   0  0  0  0  0  0  0  0  0  0  0  0
    3.4379    1.5230    0.0000 O   0  0  0  0  0  0  0  0  0  0  0  0
    6.5871    5.7614    0.0000 R#  0  0  0  0  0  0  0  0  0  0  0  0
    2.9685    2.9766    0.0000 C   0  0  0  0  0  0  0  0  0  0  0  0
    5.3575    1.5230    0.0000 S   0  0  0  0  0  0  0  0  0  0  0  0
    1.4960    2.5773    0.0000 C   0  0  0  0  0  0  0  0  0  0  0  0
    0.0000    6.8383    0.0000 R#  0  0  0  0  0  0  0  0  0  0  0  0
    3.4379    0.0000    0.0000 R#  0  0  0  0  0  0  0  0  0  0  0  0
  1  2  1  0
  2  3  1  0
  3  4  1  0
  5  4  1  0
  5  1  1  0
  5  6  1  1
  6  7  1  0
  3  9  1  1
  5 10  1  0
  2 11  1  6
 10 11  1  0
  1  8  1  6
 10 12  1  6
  7 13  1  0
  8 14  1  0
A    9
R3
A   13
R1
A   14
R2
M  END
>  <symbol>  (776)
Rs2cEt

>  <m_abbr>  (776)
Rs2cEt

>  <m_type>  (776)
rna

>  <m_subtype>  (776)
natural

>  <m_RgroupIdx>  (776)
12,13,8

>  <m_Rgroups>  (776)
H,H,OH

$$$$

     RDKit          2D

 17 17  0  0  0  0  0  0  0  0999 V2000
    4.0293    6.4832    0.0000 C   0  0  0  0  0  0  0  0  0  0  0  0
    4.4331    5.0306    0.0000 C   0  0  0  0  0  0  0  0  0  0  0  0
    5.9558    5.0561    0.0000 C   0  0  0  0  0  0  0  0  0  0  0  0
    6.4654    6.5059    0.0000 C   0  0  0  0  0  0  0  0  0  0  0  0
    5.2860    7.4434    0.0000 O   0  0  0  0  0  0  0  0  0  0  0  0
    3.5217    3.8103    0.0000 O   0  0  0  0  0  0  0  0  0  0  0  0
    2.5854    6.9676    0.0000 C   0  0  0  0  0  0  0  0  0  0  0  0
    7.9289    6.9277    0.0000 R#  0  0  0  0  0  0  0  0  0  0  0  0
    1.4440    5.9593    0.0000 O   0  0  0  0  0  0  0  0  0  0  0  0
    0.0000    6.4436    0.0000 R#  0  0  0  0  0  0  0  0  0  0  0  0
    6.8467    3.8208    0.0000 O   0  0  0  0  0  0  0  0  0  0  0  0
    3.5217    2.2820    0.0000 R#  0  0  0  0  0  0  0  0  0  0  0  0
    6.8467    2.2925    0.0000 C   0  0  0  0  0  0  0  0  0  0  0  0
    8.1702    1.5283    0.0000 C   0  0  0  0  0  0  0  0  0  0  0  0
    8.1702    0.0000    0.0000 C   0  0  0  0  0  0  0  0  0  0  0  0
    9.4938    2.2925    0.0000 O   0  0  0  0  0  0  0  0  0  0  0  0
   10.8173    1.5283    0.0000 C   0  0  0  0  0  0  0  0  0  0  0  0
  1  2  1  0
  2  3  1  0
  3  4  1  0
  4  5  1  0
  5  1  1  0
  2  6  1  6
  3 11  1  6
  1  7  1  1
  4  8  1  1
  7  9  1  0
  9 10  1  0
  6 12  1  0
 11 13  1  0
 13 14  1  0
 14 15  1  1
 14 16  1  0
 16 17  1  0
A    8
R3
A   10
R1
A   12
R2
M  END
>  <symbol>  (777)
Sm2moe

>  <m_abbr>  (777)
Sm2moe

>  <m_type>  (777)
rna

>  <m_subtype>  (777)
natural

>  <m_RgroupIdx>  (777)
9,11,7

>  <m_Rgroups>  (777)
H,H,OH

$$$$

     RDKit          2D

 15 16  0  0  0  0  0  0  0  0999 V2000
    3.6219    2.6695    0.0000 C   0  0  0  0  0  0  0  0  0  0  0  0
    5.9564    1.3680    0.0000 O   0  0  0  0  0  0  0  0  0  0  0  0
    4.0690    4.2992    0.0000 C   0  0  0  0  0  0  0  0  0  0  0  0
    4.4394    2.8220    0.0000 C   0  0  0  0  0  0  0  0  0  0  0  0
    5.9777    2.8086    0.0000 C   0  0  0  0  0  0  0  0  0  0  0  0
    6.5295    4.2596    0.0000 C   0  0  0  0  0  0  0  0  0  0  0  0
    5.3626    5.2365    0.0000 O   0  0  0  0  0  0  0  0  0  0  0  0
    3.9160    1.5230    0.0000 O   0  0  0  0  0  0  0  0  0  0  0  0
    2.6378    4.8201    0.0000 C   0  0  0  0  0  0  0  0  0  0  0  0
    8.0047    4.6381    0.0000 R#  0  0  0  0  0  0  0  0  0  0  0  0
    1.4711    3.8412    0.0000 O   0  0  0  0  0  0  0  0  0  0  0  0
    0.0000    4.2354    0.0000 R#  0  0  0  0  0  0  0  0  0  0  0  0
    3.9160    0.0000    0.0000 R#  0  0  0  0  0  0  0  0  0  0  0  0
    2.3733    6.3200    0.0000 C   0  0  0  0  0  0  0  0  0  0  0  0
    2.2175    2.0803    0.0000 C   0  0  0  0  0  0  0  0  0  0  0  0
  1  2  1  0
  3  4  1  0
  4  5  1  0
  5  6  1  0
  6  7  1  0
  3  7  1  6
  4  8  1  6
  3  9  1  0
  6 10  1  1
  9 11  1  0
  3  1  1  0
  5  2  1  6
 11 12  1  0
  8 13  1  0
  9 14  1  1
  1 15  1  6
A   10
R3
A   12
R1
A   13
R2
M  END
>  <symbol>  (778)
5S6Rm5cEt

>  <m_abbr>  (778)
5S6Rm5cEt

>  <m_type>  (778)
rna

>  <m_subtype>  (778)
natural

>  <m_RgroupIdx>  (778)
11,12,9

>  <m_Rgroups>  (778)
H,H,OH

$$$$

     RDKit          2D

 15 16  0  0  0  0  0  0  0  0999 V2000
    3.6219    2.6695    0.0000 C   0  0  0  0  0  0  0  0  0  0  0  0
    5.9564    1.3680    0.0000 O   0  0  0  0  0  0  0  0  0  0  0  0
    4.0690    4.2992    0.0000 C   0  0  0  0  0  0  0  0  0  0  0  0
    4.4394    2.8220    0.0000 C   0  0  0  0  0  0  0  0  0  0  0  0
    5.9777    2.8086    0.0000 C   0  0  0  0  0  0  0  0  0  0  0  0
    6.5295    4.2596    0.0000 C   0  0  0  0  0  0  0  0  0  0  0  0
    5.3626    5.2365    0.0000 O   0  0  0  0  0  0  0  0  0  0  0  0
    3.9160    1.5230    0.0000 O   0  0  0  0  0  0  0  0  0  0  0  0
    2.6378    4.8201    0.0000 C   0  0  0  0  0  0  0  0  0  0  0  0
    8.0047    4.6381    0.0000 R#  0  0  0  0  0  0  0  0  0  0  0  0
    1.4711    3.8412    0.0000 O   0  0  0  0  0  0  0  0  0  0  0  0
    0.0000    4.2354    0.0000 R#  0  0  0  0  0  0  0  0  0  0  0  0
    3.9160    0.0000    0.0000 R#  0  0  0  0  0  0  0  0  0  0  0  0
    2.3733    6.3200    0.0000 C   0  0  0  0  0  0  0  0  0  0  0  0
    2.2175    2.0803    0.0000 C   0  0  0  0  0  0  0  0  0  0  0  0
  1  2  1  0
  3  4  1  0
  4  5  1  0
  5  6  1  0
  6  7  1  0
  3  7  1  6
  4  8  1  6
  3  9  1  0
  6 10  1  1
  9 11  1  0
  3  1  1  0
  5  2  1  6
 11 12  1  0
  8 13  1  0
  9 14  1  6
  1 15  1  6
A   10
R3
A   12
R1
A   13
R2
M  END
>  <symbol>  (779)
5R6Rm5cEt

>  <m_abbr>  (779)
5R6Rm5cEt

>  <m_type>  (779)
rna

>  <m_subtype>  (779)
natural

>  <m_RgroupIdx>  (779)
11,12,9

>  <m_Rgroups>  (779)
H,H,OH

$$$$

     RDKit          2D

 32 32  0  0  0  0  0  0  0  0999 V2000
    4.0956   11.8727    0.0000 C   0  0  0  0  0  0  0  0  0  0  0  0
    5.6186   11.8727    0.0000 C   0  0  0  0  0  0  0  0  0  0  0  0
    6.0894   13.3211    0.0000 C   0  0  0  0  0  0  0  0  0  0  0  0
    4.8571   14.2162    0.0000 O   0  0  0  0  0  0  0  0  0  0  0  0
    3.6251   13.3211    0.0000 C   0  0  0  0  0  0  0  0  0  0  0  0
    7.1662   14.3981    0.0000 R#  0  0  0  0  0  0  0  0  0  0  0  0
    2.5481   14.3981    0.0000 C   0  0  0  0  0  0  0  0  0  0  0  0
    3.2005   10.6406    0.0000 O   0  0  0  0  0  0  0  0  0  0  0  0
    6.5139   10.6406    0.0000 O   0  0  0  0  0  0  0  0  0  0  0  0
    8.0284   10.7997    0.0000 C   0  0  0  0  0  0  0  0  0  0  0  0
    8.9238    9.5675    0.0000 C   0  0  0  0  0  0  0  0  0  0  0  0
   10.4383    9.7268    0.0000 N   0  0  0  0  0  0  0  0  0  0  0  0
   11.3336    8.4946    0.0000 C   0  0  0  0  0  0  0  0  0  0  0  0
   12.8483    8.6539    0.0000 C   0  0  0  0  0  0  0  0  0  0  0  0
   13.7434    7.4216    0.0000 C   0  0  0  0  0  0  0  0  0  0  0  0
   15.2581    7.5810    0.0000 C   0  0  0  0  0  0  0  0  0  0  0  0
   16.1533    6.3487    0.0000 N   0  0  0  0  0  0  0  0  0  0  0  0
    8.3042    8.1763    0.0000 O   0  0  0  0  0  0  0  0  0  0  0  0
   17.6680    6.5080    0.0000 C   0  0  0  0  0  0  0  0  0  0  0  0
   18.5631    5.2758    0.0000 C   0  0  0  0  0  0  0  0  0  0  0  0
   18.2873    7.8994    0.0000 O   0  0  0  0  0  0  0  0  0  0  0  0
    1.0770   14.0039    0.0000 O   0  0  0  0  0  0  0  0  0  0  0  0
    3.2005    9.1176    0.0000 R#  0  0  0  0  0  0  0  0  0  0  0  0
    0.0000   15.0808    0.0000 R#  0  0  0  0  0  0  0  0  0  0  0  0
   20.0861    5.2758    0.0000 C   0  0  0  0  0  0  0  0  0  0  0  0
   20.8476    3.9568    0.0000 C   0  0  0  0  0  0  0  0  0  0  0  0
   22.3706    3.9568    0.0000 C   0  0  0  0  0  0  0  0  0  0  0  0
   23.1321    2.6379    0.0000 C   0  0  0  0  0  0  0  0  0  0  0  0
   24.6551    2.6379    0.0000 C   0  0  0  0  0  0  0  0  0  0  0  0
   25.4166    1.3189    0.0000 C   0  0  0  0  0  0  0  0  0  0  0  0
   26.9396    1.3189    0.0000 C   0  0  0  0  0  0  0  0  0  0  0  0
   27.7011    0.0000    0.0000 C   0  0  0  0  0  0  0  0  0  0  0  0
  1  2  1  0
  2  3  1  0
  3  4  1  0
  4  5  1  0
  5  1  1  0
  3  6  1  1
  5  7  1  1
  1  8  1  6
  2  9  1  6
  9 10  1  0
 10 11  1  0
 11 12  1  0
 12 13  1  0
 13 14  1  0
 14 15  1  0
 15 16  1  0
 16 17  1  0
 11 18  2  0
 17 19  1  0
 19 20  1  0
 19 21  2  0
  7 22  1  0
  8 23  1  0
 22 24  1  0
 20 25  1  0
 25 26  1  0
 26 27  1  0
 27 28  1  0
 28 29  1  0
 29 30  1  0
 30 31  1  0
 31 32  1  0
A    6
R3
A   23
R1
A   24
R2
M  END
>  <symbol>  (780)
C10aba2r

>  <m_abbr>  (780)
C10aba2r

>  <m_type>  (780)
rna

>  <m_subtype>  (780)
natural

>  <m_RgroupIdx>  (780)
22,23,5

>  <m_Rgroups>  (780)
H,H,OH

$$$$

     RDKit          2D

 16 17  0  0  0  0  0  0  0  0999 V2000
    1.3587    8.8209    0.0000 R#  0  0  0  0  0  0  0  0  0  0  0  0
    1.3587    7.2979    0.0000 P   0  0  0  0  0  0  0  0  0  0  0  0
    0.0000    6.2984    0.0000 O   0  0  0  0  0  0  0  0  0  0  0  0
    0.0397    5.0134    0.0000 C   0  0  0  0  0  0  0  0  0  0  0  0
    1.3587    4.2519    0.0000 C   0  0  0  0  0  0  0  0  0  0  0  0
    2.6775    5.0134    0.0000 C   0  0  0  0  0  0  0  0  0  0  0  0
    2.6775    6.5364    0.0000 O   0  0  0  0  0  0  0  0  0  0  0  0
    4.4749    2.7553    0.0000 C   0  0  0  0  0  0  0  0  0  0  0  0
    5.9979    2.7553    0.0000 C   0  0  0  0  0  0  0  0  0  0  0  0
    6.4686    4.2037    0.0000 C   0  0  0  0  0  0  0  0  0  0  0  0
    5.2364    5.0988    0.0000 O   0  0  0  0  0  0  0  0  0  0  0  0
    4.0043    4.2037    0.0000 C   0  0  0  0  0  0  0  0  0  0  0  0
    0.1629    8.4540    0.0000 O   0  0  0  0  0  0  0  0  0  0  0  0
    3.5797    1.5230    0.0000 O   0  0  0  0  0  0  0  0  0  0  0  0
    7.9170    4.6742    0.0000 R#  0  0  0  0  0  0  0  0  0  0  0  0
    3.5797    0.0000    0.0000 R#  0  0  0  0  0  0  0  0  0  0  0  0
  2  1  1  1
  2  3  1  0
  3  4  1  0
  4  5  1  0
  6  5  1  1
  6  7  1  0
  7  2  1  0
  8  9  1  0
  9 10  1  0
 10 11  1  0
 12 11  1  1
 12  8  1  0
 12  6  1  0
  2 13  2  0
  8 14  1  6
 10 15  1  1
 14 16  1  0
A    1
R1
A   15
R3
A   16
R2
M  END
>  <symbol>  (781)
RSpabCNA

>  <m_abbr>  (781)
RSpabCNA

>  <m_type>  (781)
rna

>  <m_subtype>  (781)
natural

>  <m_RgroupIdx>  (781)
0,15,14

>  <m_Rgroups>  (781)
H,H,OH

$$$$

     RDKit          2D

 15 15  0  0  0  0  0  0  0  0999 V2000
    5.6314    2.7553    0.0000 C   0  0  0  0  0  0  0  0  0  0  0  0
    7.2179    2.7553    0.0000 C   0  0  0  0  0  0  0  0  0  0  0  0
    7.6250    4.2037    0.0000 C   0  0  0  0  0  0  0  0  0  0  0  0
    6.3929    5.0989    0.0000 O   0  0  0  0  0  0  0  0  0  0  0  0
    5.1608    4.2037    0.0000 C   0  0  0  0  0  0  0  0  0  0  0  0
    9.0736    4.6743    0.0000 R#  0  0  0  0  0  0  0  0  0  0  0  0
    3.7122    4.6743    0.0000 C   0  0  0  0  0  0  0  0  0  0  0  0
    2.5803    3.6552    0.0000 C   0  0  0  0  0  0  0  0  0  0  0  0
    3.3956    6.1641    0.0000 O   0  0  0  0  0  0  0  0  0  0  0  0
    4.7362    1.5230    0.0000 O   0  0  0  0  0  0  0  0  0  0  0  0
    5.1608    5.7268    0.0000 H   0  0  0  0  0  0  0  0  0  0  0  0
    1.1319    4.1258    0.0000 C   0  0  0  0  0  0  0  0  0  0  0  0
    0.0000    3.1068    0.0000 O   0  0  0  0  0  0  0  0  0  0  0  0
    2.0766    6.9256    0.0000 R#  0  0  0  0  0  0  0  0  0  0  0  0
    4.7362    0.0000    0.0000 R#  0  0  0  0  0  0  0  0  0  0  0  0
  1  2  1  0
  2  3  1  0
  3  4  1  0
  4  5  1  0
  5  1  1  0
  3  6  1  1
  5  7  1  0
  7  8  1  6
  7  9  1  0
  1 10  1  6
  5 11  1  6
  8 12  1  0
 12 13  1  0
  9 14  1  0
 10 15  1  0
A    6
R3
A   14
R1
A   15
R2
M  END
>  <symbol>  (782)
She5d

>  <m_abbr>  (782)
She5d

>  <m_type>  (782)
rna

>  <m_subtype>  (782)
natural

>  <m_RgroupIdx>  (782)
13,14,5

>  <m_Rgroups>  (782)
H,H,OH

$$$$

     RDKit          2D

 15 16  0  0  0  0  0  0  0  0999 V2000
    1.7527    5.5939    0.0000 C   0  0  0  0  0  0  0  0  0  0  0  0
    1.4711    7.0907    0.0000 O   0  0  0  0  0  0  0  0  0  0  0  0
    2.6360    3.9373    0.0000 C   0  0  0  0  0  0  0  0  0  0  0  0
    3.1886    5.0916    0.0000 C   0  0  0  0  0  0  0  0  0  0  0  0
    5.0974    3.6010    0.0000 C   0  0  0  0  0  0  0  0  0  0  0  0
    5.6492    5.0520    0.0000 C   0  0  0  0  0  0  0  0  0  0  0  0
    4.4823    6.0289    0.0000 O   0  0  0  0  0  0  0  0  0  0  0  0
    3.5111    1.5230    0.0000 O   0  0  0  0  0  0  0  0  0  0  0  0
    7.1244    5.4305    0.0000 R#  0  0  0  0  0  0  0  0  0  0  0  0
    2.6786    2.7617    0.0000 O   0  0  0  0  0  0  0  0  0  0  0  0
    3.5590    3.6144    0.0000 C   0  0  0  0  0  0  0  0  0  0  0  0
    0.0000    7.4849    0.0000 R#  0  0  0  0  0  0  0  0  0  0  0  0
    3.5111    0.0000    0.0000 R#  0  0  0  0  0  0  0  0  0  0  0  0
    5.0761    2.1603    0.0000 N   0  0  0  0  0  0  0  0  0  0  0  0
    6.0040    0.9526    0.0000 C   0  0  0  0  0  0  0  0  0  0  0  0
 14 10  1  0
  4  1  1  1
  1  2  1  0
  4 11  1  0
 11  5  1  0
  5  6  1  0
  6  7  1  0
  7  4  1  0
  6  9  1  1
  4  3  1  0
  5 14  1  6
 10  3  1  0
 11  8  1  6
  2 12  1  0
  8 13  1  0
 14 15  1  0
A    9
R3
A   12
R1
A   13
R2
M  END
>  <symbol>  (783)
mnobna

>  <m_abbr>  (783)
mnobna

>  <m_type>  (783)
rna

>  <m_subtype>  (783)
natural

>  <m_RgroupIdx>  (783)
11,12,8

>  <m_Rgroups>  (783)
H,H,OH

$$$$

     RDKit          2D

 14 15  0  0  0  0  0  0  0  0999 V2000
    3.6219    2.8416    0.0000 C   0  0  0  0  0  0  0  0  0  0  0  0
    5.9564    1.5401    0.0000 C   0  0  0  0  0  0  0  0  0  0  0  0
    4.0689    4.4713    0.0000 C   0  0  0  0  0  0  0  0  0  0  0  0
    4.4394    2.9941    0.0000 C   0  0  0  0  0  0  0  0  0  0  0  0
    5.9777    2.9807    0.0000 C   0  0  0  0  0  0  0  0  0  0  0  0
    6.5295    4.4317    0.0000 C   0  0  0  0  0  0  0  0  0  0  0  0
    5.3626    5.4086    0.0000 O   0  0  0  0  0  0  0  0  0  0  0  0
    2.6378    4.9922    0.0000 C   0  0  0  0  0  0  0  0  0  0  0  0
    8.0047    4.8103    0.0000 R#  0  0  0  0  0  0  0  0  0  0  0  0
    1.4711    4.0133    0.0000 O   0  0  0  0  0  0  0  0  0  0  0  0
    0.0000    4.4075    0.0000 R#  0  0  0  0  0  0  0  0  0  0  0  0
    4.0452    1.5230    0.0000 O   0  0  0  0  0  0  0  0  0  0  0  0
    4.0452    0.0000    0.0000 R#  0  0  0  0  0  0  0  0  0  0  0  0
    7.4275    1.1459    0.0000 F   0  0  0  0  0  0  0  0  0  0  0  0
  1  2  1  0
  3  4  1  0
  4  5  1  0
  5  6  1  6
  6  7  1  0
  3  7  1  0
  3  8  1  1
  6  9  1  1
  8 10  1  0
  3  1  1  0
  5  2  1  0
 10 11  1  0
  4 12  1  6
 12 13  1  0
  2 14  1  6
A    9
R3
A   11
R1
A   13
R2
M  END
>  <symbol>  (784)
Rflclna

>  <m_abbr>  (784)
Rflclna

>  <m_type>  (784)
rna

>  <m_subtype>  (784)
natural

>  <m_RgroupIdx>  (784)
10,12,8

>  <m_Rgroups>  (784)
H,H,OH

$$$$

     RDKit          2D

 13 13  0  0  0  0  0  0  0  0999 V2000
    4.5690    5.4798    0.0000 O   0  0  0  0  0  0  0  0  0  0  0  0
    3.8075    4.1609    0.0000 C   0  0  0  0  0  0  0  0  0  0  0  0
    4.5690    2.8419    0.0000 C   0  0  0  0  0  0  0  0  0  0  0  0
    6.0920    2.8419    0.0000 C   0  0  0  0  0  0  0  0  0  0  0  0
    6.8534    4.1609    0.0000 C   0  0  0  0  0  0  0  0  0  0  0  0
    6.0920    5.4798    0.0000 C   0  0  0  0  0  0  0  0  0  0  0  0
    8.3764    4.1609    0.0000 R#  0  0  0  0  0  0  0  0  0  0  0  0
    6.8534    1.5230    0.0000 F   0  0  0  0  0  0  0  0  0  0  0  0
    3.8075    1.5230    0.0000 O   0  0  0  0  0  0  0  0  0  0  0  0
    2.2845    4.1609    0.0000 C   0  0  0  0  0  0  0  0  0  0  0  0
    1.5230    2.8419    0.0000 O   0  0  0  0  0  0  0  0  0  0  0  0
    3.8075    0.0000    0.0000 R#  0  0  0  0  0  0  0  0  0  0  0  0
    0.0000    2.8419    0.0000 R#  0  0  0  0  0  0  0  0  0  0  0  0
  1  2  1  0
  2  3  1  0
  3  4  1  0
  4  5  1  0
  5  6  1  0
  6  1  1  0
  5  7  1  1
  4  8  1  1
  3  9  1  6
  2 10  1  1
 10 11  1  0
  9 12  1  0
 11 13  1  0
A    7
R3
A   12
R2
A   13
R1
M  END
>  <symbol>  (785)
afhna

>  <m_abbr>  (785)
afhna

>  <m_type>  (785)
rna

>  <m_subtype>  (785)
natural

>  <m_RgroupIdx>  (785)
12,11,6

>  <m_Rgroups>  (785)
H,H,OH

$$$$

     RDKit          2D

 13 13  0  0  0  0  0  0  0  0999 V2000
    4.5690    5.4799    0.0000 O   0  0  0  0  0  0  0  0  0  0  0  0
    3.8075    4.1609    0.0000 C   0  0  0  0  0  0  0  0  0  0  0  0
    4.5690    2.8419    0.0000 C   0  0  0  0  0  0  0  0  0  0  0  0
    6.0920    2.8419    0.0000 C   0  0  0  0  0  0  0  0  0  0  0  0
    6.8535    4.1609    0.0000 C   0  0  0  0  0  0  0  0  0  0  0  0
    6.0920    5.4799    0.0000 C   0  0  0  0  0  0  0  0  0  0  0  0
    8.3765    4.1609    0.0000 R#  0  0  0  0  0  0  0  0  0  0  0  0
    6.8535    1.5230    0.0000 O   0  0  0  0  0  0  0  0  0  0  0  0
    3.8075    1.5230    0.0000 O   0  0  0  0  0  0  0  0  0  0  0  0
    2.2845    4.1609    0.0000 C   0  0  0  0  0  0  0  0  0  0  0  0
    1.5230    2.8419    0.0000 O   0  0  0  0  0  0  0  0  0  0  0  0
    3.8075    0.0000    0.0000 R#  0  0  0  0  0  0  0  0  0  0  0  0
    0.0000    2.8419    0.0000 R#  0  0  0  0  0  0  0  0  0  0  0  0
  1  2  1  0
  2  3  1  0
  3  4  1  0
  4  5  1  0
  5  6  1  0
  6  1  1  0
  5  7  1  1
  4  8  1  6
  3  9  1  6
  2 10  1  1
 10 11  1  0
  9 12  1  0
 11 13  1  0
A    7
R3
A   12
R2
A   13
R1
M  END
>  <symbol>  (786)
ana

>  <m_abbr>  (786)
ana

>  <m_type>  (786)
rna

>  <m_subtype>  (786)
natural

>  <m_RgroupIdx>  (786)
12,11,6

>  <m_Rgroups>  (786)
H,H,OH

$$$$

     RDKit          2D

 16 16  0  0  0  0  0  0  0  0999 V2000
    4.5690    6.5948    0.0000 O   0  0  0  0  0  0  0  0  0  0  0  0
    3.8075    5.2758    0.0000 C   0  0  0  0  0  0  0  0  0  0  0  0
    4.5690    3.9568    0.0000 C   0  0  0  0  0  0  0  0  0  0  0  0
    6.0920    3.9568    0.0000 C   0  0  0  0  0  0  0  0  0  0  0  0
    6.8535    5.2758    0.0000 C   0  0  0  0  0  0  0  0  0  0  0  0
    6.0920    6.5948    0.0000 C   0  0  0  0  0  0  0  0  0  0  0  0
    8.3765    5.2758    0.0000 R#  0  0  0  0  0  0  0  0  0  0  0  0
    6.8535    2.6379    0.0000 O   0  0  0  0  0  0  0  0  0  0  0  0
    3.8075    2.6379    0.0000 O   0  0  0  0  0  0  0  0  0  0  0  0
    2.2845    5.2758    0.0000 C   0  0  0  0  0  0  0  0  0  0  0  0
    1.5230    3.9568    0.0000 O   0  0  0  0  0  0  0  0  0  0  0  0
    3.8075    1.1149    0.0000 R#  0  0  0  0  0  0  0  0  0  0  0  0
    0.0000    3.9568    0.0000 R#  0  0  0  0  0  0  0  0  0  0  0  0
    6.0920    1.3189    0.0000 C   0  0  0  0  0  0  0  0  0  0  0  0
    6.8535    0.0000    0.0000 C   0  0  0  0  0  0  0  0  0  0  0  0
    8.3765    0.0000    0.0000 F   0  0  0  0  0  0  0  0  0  0  0  0
  1  2  1  0
  2  3  1  0
  3  4  1  0
  4  5  1  0
  5  6  1  0
  6  1  1  0
  5  7  1  1
  4  8  1  6
  3  9  1  6
  2 10  1  1
 10 11  1  0
  9 12  1  0
 11 13  1  0
  8 14  1  0
 14 15  1  0
 15 16  1  0
A    7
R3
A   12
R2
A   13
R1
M  END
>  <symbol>  (787)
fleana

>  <m_abbr>  (787)
fleana

>  <m_type>  (787)
rna

>  <m_subtype>  (787)
natural

>  <m_RgroupIdx>  (787)
12,11,6

>  <m_Rgroups>  (787)
H,H,OH

$$$$

     RDKit          2D

 17 17  0  0  0  0  0  0  0  0999 V2000
    4.0295    7.3041    0.0000 C   0  0  0  0  0  0  0  0  0  0  0  0
    4.4725    5.8470    0.0000 C   0  0  0  0  0  0  0  0  0  0  0  0
    5.9952    5.8180    0.0000 C   0  0  0  0  0  0  0  0  0  0  0  0
    6.4933    7.2572    0.0000 C   0  0  0  0  0  0  0  0  0  0  0  0
    5.2785    8.1757    0.0000 O   0  0  0  0  0  0  0  0  0  0  0  0
    2.5903    7.8022    0.0000 C   0  0  0  0  0  0  0  0  0  0  0  0
    3.5540    4.6321    0.0000 O   0  0  0  0  0  0  0  0  0  0  0  0
    1.4393    6.8049    0.0000 O   0  0  0  0  0  0  0  0  0  0  0  0
    0.0000    7.3030    0.0000 R#  0  0  0  0  0  0  0  0  0  0  0  0
    3.6048    3.1099    0.0000 R#  0  0  0  0  0  0  0  0  0  0  0  0
    6.8668    4.5690    0.0000 O   0  0  0  0  0  0  0  0  0  0  0  0
    7.9505    7.7002    0.0000 R#  0  0  0  0  0  0  0  0  0  0  0  0
    6.8668    3.0460    0.0000 C   0  0  0  0  0  0  0  0  0  0  0  0
    8.1858    2.2846    0.0000 C   0  0  0  0  0  0  0  0  0  0  0  0
    8.1858    0.7615    0.0000 O   0  0  0  0  0  0  0  0  0  0  0  0
    9.5047    0.0000    0.0000 C   0  0  0  0  0  0  0  0  0  0  0  0
    2.3020    9.2977    0.0000 C   0  0  0  0  0  0  0  0  0  0  0  0
  1  2  1  0
  2  3  1  0
  3  4  1  0
  4  5  1  0
  1  5  1  1
  1  6  1  0
  2  7  1  6
  6  8  1  0
  8  9  1  0
  7 10  1  0
  3 11  1  6
  4 12  1  1
 11 13  1  0
 13 14  1  0
 14 15  1  0
 15 16  1  0
  6 17  1  6
A    9
R1
A   10
R2
A   12
R3
M  END
>  <symbol>  (788)
Rm5moe

>  <m_abbr>  (788)
Rm5moe

>  <m_type>  (788)
rna

>  <m_subtype>  (788)
natural

>  <m_RgroupIdx>  (788)
8,9,11

>  <m_Rgroups>  (788)
H,H,OH

$$$$

     RDKit          2D

 13 13  0  0  0  0  0  0  0  0999 V2000
    4.5690    5.4799    0.0000 O   0  0  0  0  0  0  0  0  0  0  0  0
    3.8075    4.1609    0.0000 C   0  0  0  0  0  0  0  0  0  0  0  0
    4.5690    2.8420    0.0000 C   0  0  0  0  0  0  0  0  0  0  0  0
    6.0920    2.8420    0.0000 C   0  0  0  0  0  0  0  0  0  0  0  0
    6.8535    4.1609    0.0000 C   0  0  0  0  0  0  0  0  0  0  0  0
    6.0920    5.4799    0.0000 C   0  0  0  0  0  0  0  0  0  0  0  0
    8.3765    4.1609    0.0000 R#  0  0  0  0  0  0  0  0  0  0  0  0
    6.8535    1.5230    0.0000 Cl  0  0  0  0  0  0  0  0  0  0  0  0
    3.8075    1.5230    0.0000 O   0  0  0  0  0  0  0  0  0  0  0  0
    2.2845    4.1609    0.0000 C   0  0  0  0  0  0  0  0  0  0  0  0
    1.5230    2.8420    0.0000 O   0  0  0  0  0  0  0  0  0  0  0  0
    3.8075    0.0000    0.0000 R#  0  0  0  0  0  0  0  0  0  0  0  0
    0.0000    2.8420    0.0000 R#  0  0  0  0  0  0  0  0  0  0  0  0
  1  2  1  0
  2  3  1  0
  3  4  1  0
  4  5  1  0
  5  6  1  0
  6  1  1  0
  5  7  1  1
  4  8  1  6
  3  9  1  6
  2 10  1  1
 10 11  1  0
  9 12  1  0
 11 13  1  0
A    7
R3
A   12
R2
A   13
R1
M  END
>  <symbol>  (789)
clhna

>  <m_abbr>  (789)
clhna

>  <m_type>  (789)
rna

>  <m_subtype>  (789)
natural

>  <m_RgroupIdx>  (789)
12,11,6

>  <m_Rgroups>  (789)
H,H,OH

$$$$

     RDKit          2D

 15 15  0  0  0  0  0  0  0  0999 V2000
    2.5902    7.3041    0.0000 C   0  0  0  0  0  0  0  0  0  0  0  0
    3.0332    5.8470    0.0000 C   0  0  0  0  0  0  0  0  0  0  0  0
    4.5559    5.8180    0.0000 C   0  0  0  0  0  0  0  0  0  0  0  0
    5.0540    7.2572    0.0000 C   0  0  0  0  0  0  0  0  0  0  0  0
    3.8391    8.1757    0.0000 O   0  0  0  0  0  0  0  0  0  0  0  0
    1.1510    7.8022    0.0000 C   0  0  0  0  0  0  0  0  0  0  0  0
    2.1147    4.6321    0.0000 O   0  0  0  0  0  0  0  0  0  0  0  0
    2.1655    3.1099    0.0000 R#  0  0  0  0  0  0  0  0  0  0  0  0
    5.4275    4.5690    0.0000 O   0  0  0  0  0  0  0  0  0  0  0  0
    6.5112    7.7002    0.0000 R#  0  0  0  0  0  0  0  0  0  0  0  0
    5.4275    3.0460    0.0000 C   0  0  0  0  0  0  0  0  0  0  0  0
    6.7464    2.2845    0.0000 C   0  0  0  0  0  0  0  0  0  0  0  0
    6.7464    0.7615    0.0000 O   0  0  0  0  0  0  0  0  0  0  0  0
    8.0654    0.0000    0.0000 C   0  0  0  0  0  0  0  0  0  0  0  0
    0.0000    6.8049    0.0000 R#  0  0  0  0  0  0  0  0  0  0  0  0
  1  2  1  0
  2  3  1  0
  3  4  1  0
  4  5  1  0
  5  1  1  0
  1  6  1  1
  2  7  1  6
  7  8  1  0
  3  9  1  6
  4 10  1  1
  9 11  1  0
 11 12  1  0
 12 13  1  0
 13 14  1  0
  6 15  1  0
A    8
R2
A   10
R3
A   15
R1
M  END
>  <symbol>  (790)
d5moe

>  <m_abbr>  (790)
d5moe

>  <m_type>  (790)
rna

>  <m_subtype>  (790)
natural

>  <m_RgroupIdx>  (790)
14,7,9

>  <m_Rgroups>  (790)
H,H,OH

$$$$

     RDKit          2D

 15 16  0  0  0  0  0  0  0  0999 V2000
    3.6218    2.6695    0.0000 C   0  0  0  0  0  0  0  0  0  0  0  0
    5.9563    1.3680    0.0000 O   0  0  0  0  0  0  0  0  0  0  0  0
    4.0689    4.2992    0.0000 C   0  0  0  0  0  0  0  0  0  0  0  0
    4.4393    2.8220    0.0000 C   0  0  0  0  0  0  0  0  0  0  0  0
    5.9777    2.8086    0.0000 C   0  0  0  0  0  0  0  0  0  0  0  0
    6.5295    4.2596    0.0000 C   0  0  0  0  0  0  0  0  0  0  0  0
    5.3626    5.2365    0.0000 O   0  0  0  0  0  0  0  0  0  0  0  0
    3.9159    1.5230    0.0000 O   0  0  0  0  0  0  0  0  0  0  0  0
    2.6378    4.8201    0.0000 C   0  0  0  0  0  0  0  0  0  0  0  0
    8.0047    4.6382    0.0000 R#  0  0  0  0  0  0  0  0  0  0  0  0
    1.4711    3.8412    0.0000 O   0  0  0  0  0  0  0  0  0  0  0  0
    0.0000    4.2354    0.0000 R#  0  0  0  0  0  0  0  0  0  0  0  0
    3.9159    0.0000    0.0000 R#  0  0  0  0  0  0  0  0  0  0  0  0
    2.3733    6.3200    0.0000 C   0  0  0  0  0  0  0  0  0  0  0  0
    2.2174    2.0803    0.0000 C   0  0  0  0  0  0  0  0  0  0  0  0
  1  2  1  0
  3  4  1  0
  4  5  1  0
  5  6  1  0
  6  7  1  0
  3  7  1  6
  4  8  1  6
  3  9  1  0
  6 10  1  1
  9 11  1  0
  3  1  1  0
  5  2  1  6
 11 12  1  0
  8 13  1  0
  9 14  1  1
  1 15  1  1
A   10
R3
A   12
R1
A   13
R2
M  END
>  <symbol>  (791)
5S6Sm5cEt

>  <m_abbr>  (791)
5S6Sm5cEt

>  <m_type>  (791)
rna

>  <m_subtype>  (791)
natural

>  <m_RgroupIdx>  (791)
11,12,9

>  <m_Rgroups>  (791)
H,H,OH

$$$$

     RDKit          2D

 15 16  0  0  0  0  0  0  0  0999 V2000
    3.6219    2.6695    0.0000 C   0  0  0  0  0  0  0  0  0  0  0  0
    5.9564    1.3680    0.0000 O   0  0  0  0  0  0  0  0  0  0  0  0
    4.0690    4.2992    0.0000 C   0  0  0  0  0  0  0  0  0  0  0  0
    4.4394    2.8220    0.0000 C   0  0  0  0  0  0  0  0  0  0  0  0
    5.9777    2.8086    0.0000 C   0  0  0  0  0  0  0  0  0  0  0  0
    6.5295    4.2596    0.0000 C   0  0  0  0  0  0  0  0  0  0  0  0
    5.3626    5.2365    0.0000 O   0  0  0  0  0  0  0  0  0  0  0  0
    3.9160    1.5230    0.0000 O   0  0  0  0  0  0  0  0  0  0  0  0
    2.6378    4.8201    0.0000 C   0  0  0  0  0  0  0  0  0  0  0  0
    8.0047    4.6381    0.0000 R#  0  0  0  0  0  0  0  0  0  0  0  0
    1.4711    3.8412    0.0000 O   0  0  0  0  0  0  0  0  0  0  0  0
    0.0000    4.2354    0.0000 R#  0  0  0  0  0  0  0  0  0  0  0  0
    3.9160    0.0000    0.0000 R#  0  0  0  0  0  0  0  0  0  0  0  0
    2.3733    6.3200    0.0000 C   0  0  0  0  0  0  0  0  0  0  0  0
    2.2175    2.0803    0.0000 C   0  0  0  0  0  0  0  0  0  0  0  0
  1  2  1  0
  3  4  1  0
  4  5  1  0
  5  6  1  0
  6  7  1  0
  3  7  1  6
  4  8  1  6
  3  9  1  0
  6 10  1  1
  9 11  1  0
  3  1  1  0
  5  2  1  6
 11 12  1  0
  8 13  1  0
  9 14  1  6
  1 15  1  1
A   10
R3
A   12
R1
A   13
R2
M  END
>  <symbol>  (792)
5R6Sm5cEt

>  <m_abbr>  (792)
5R6Sm5cEt

>  <m_type>  (792)
rna

>  <m_subtype>  (792)
natural

>  <m_RgroupIdx>  (792)
11,12,9

>  <m_Rgroups>  (792)
H,H,OH

$$$$

     RDKit          2D

 15 17  0  0  0  0  0  0  0  0999 V2000
    3.6734    2.9953    0.0000 C   0  0  0  0  0  0  0  0  0  0  0  0
    5.1771    2.5068    0.0000 C   0  0  0  0  0  0  0  0  0  0  0  0
    6.0090    3.7542    0.0000 C   0  0  0  0  0  0  0  0  0  0  0  0
    5.1167    4.9820    0.0000 O   0  0  0  0  0  0  0  0  0  0  0  0
    3.6734    4.5130    0.0000 C   0  0  0  0  0  0  0  0  0  0  0  0
    7.5267    3.7542    0.0000 R#  0  0  0  0  0  0  0  0  0  0  0  0
    3.6734    1.4776    0.0000 O   0  0  0  0  0  0  0  0  0  0  0  0
    2.2300    4.9819    0.0000 C   0  0  0  0  0  0  0  0  0  0  0  0
    1.3378    3.7541    0.0000 C   0  0  0  0  0  0  0  0  0  0  0  0
    2.2300    2.5261    0.0000 C   0  0  0  0  0  0  0  0  0  0  0  0
    3.6734    6.0307    0.0000 H   0  0  0  0  0  0  0  0  0  0  0  0
    1.7610    6.4253    0.0000 O   0  0  0  0  0  0  0  0  0  0  0  0
    0.0000    6.4253    0.0000 R#  0  0  0  0  0  0  0  0  0  0  0  0
    2.7533    0.0000    0.0000 R#  0  0  0  0  0  0  0  0  0  0  0  0
    0.7206    5.1406    0.0000 C   0  0  0  0  0  0  0  0  0  0  0  0
  1  2  1  0
  2  3  1  0
  3  4  1  0
  4  5  1  0
  5  1  1  0
  3  6  1  1
  1  7  1  6
  5  8  1  0
  8  9  1  0
  9 10  1  6
 10  1  1  0
  5 11  1  6
  8 12  1  1
 12 13  1  0
  7 14  1  0
  8 15  1  0
  9 15  1  0
A    6
R3
A   13
R1
A   14
R2
M  END
>  <symbol>  (793)
tcdna

>  <m_abbr>  (793)
tcdna

>  <m_type>  (793)
rna

>  <m_subtype>  (793)
natural

>  <m_RgroupIdx>  (793)
12,13,5

>  <m_Rgroups>  (793)
H,H,OH

$$$$

     RDKit          2D

 17 17  0  0  0  0  0  0  0  0999 V2000
    4.0293    6.4832    0.0000 C   0  0  0  0  0  0  0  0  0  0  0  0
    4.4331    5.0305    0.0000 C   0  0  0  0  0  0  0  0  0  0  0  0
    5.9559    5.0560    0.0000 C   0  0  0  0  0  0  0  0  0  0  0  0
    6.4654    6.5059    0.0000 C   0  0  0  0  0  0  0  0  0  0  0  0
    5.2860    7.4433    0.0000 O   0  0  0  0  0  0  0  0  0  0  0  0
    3.5217    3.8103    0.0000 O   0  0  0  0  0  0  0  0  0  0  0  0
    2.5854    6.9675    0.0000 C   0  0  0  0  0  0  0  0  0  0  0  0
    7.9289    6.9277    0.0000 R#  0  0  0  0  0  0  0  0  0  0  0  0
    1.4439    5.9592    0.0000 O   0  0  0  0  0  0  0  0  0  0  0  0
    0.0000    6.4436    0.0000 R#  0  0  0  0  0  0  0  0  0  0  0  0
    6.8467    3.8207    0.0000 O   0  0  0  0  0  0  0  0  0  0  0  0
    3.5217    2.2820    0.0000 R#  0  0  0  0  0  0  0  0  0  0  0  0
    6.8467    2.2924    0.0000 C   0  0  0  0  0  0  0  0  0  0  0  0
    8.1702    1.5283    0.0000 C   0  0  0  0  0  0  0  0  0  0  0  0
    9.4938    2.2924    0.0000 F   0  0  0  0  0  0  0  0  0  0  0  0
    8.1702    0.0000    0.0000 F   0  0  0  0  0  0  0  0  0  0  0  0
    9.4938    0.7641    0.0000 F   0  0  0  0  0  0  0  0  0  0  0  0
  1  2  1  0
  2  3  1  0
  3  4  1  0
  4  5  1  0
  5  1  1  0
  2  6  1  6
  3 11  1  6
  1  7  1  1
  4  8  1  1
  7  9  1  0
  9 10  1  0
  6 12  1  0
 11 13  1  0
 13 14  1  0
 14 15  1  0
 14 16  1  0
 14 17  1  0
A    8
R3
A   10
R1
A   12
R2
M  END
>  <symbol>  (794)
fl3e2r

>  <m_abbr>  (794)
fl3e2r

>  <m_type>  (794)
rna

>  <m_subtype>  (794)
natural

>  <m_RgroupIdx>  (794)
9,11,7

>  <m_Rgroups>  (794)
H,H,OH

$$$$

     RDKit          2D

 18 19  0  0  0  0  0  0  0  0999 V2000
    3.8322    5.4144    0.0000 C   0  0  0  0  0  0  0  0  0  0  0  0
    5.3554    5.4144    0.0000 C   0  0  0  0  0  0  0  0  0  0  0  0
    5.8259    6.8631    0.0000 C   0  0  0  0  0  0  0  0  0  0  0  0
    4.5938    7.7584    0.0000 O   0  0  0  0  0  0  0  0  0  0  0  0
    3.3616    6.8631    0.0000 C   0  0  0  0  0  0  0  0  0  0  0  0
    2.6001    8.1821    0.0000 C   0  0  0  0  0  0  0  0  0  0  0  0
    1.0770    8.1821    0.0000 O   0  0  0  0  0  0  0  0  0  0  0  0
    3.4381    3.9434    0.0000 O   0  0  0  0  0  0  0  0  0  0  0  0
    6.5875    8.1821    0.0000 R#  0  0  0  0  0  0  0  0  0  0  0  0
    2.9700    5.4021    0.0000 C   0  0  0  0  0  0  0  0  0  0  0  0
    5.3578    3.9434    0.0000 N   0  0  0  0  0  0  0  0  0  0  0  0
    0.0000    9.2591    0.0000 R#  0  0  0  0  0  0  0  0  0  0  0  0
    3.4381    2.4203    0.0000 R#  0  0  0  0  0  0  0  0  0  0  0  0
    6.1167    2.6289    0.0000 O   0  0  0  0  0  0  0  0  0  0  0  0
    7.6346    2.6289    0.0000 C   0  0  0  0  0  0  0  0  0  0  0  0
    8.3935    1.3144    0.0000 C   0  0  0  0  0  0  0  0  0  0  0  0
    9.9113    1.3144    0.0000 O   0  0  0  0  0  0  0  0  0  0  0  0
   10.6702    0.0000    0.0000 C   0  0  0  0  0  0  0  0  0  0  0  0
  1  2  1  0
  2  3  1  0
  3  4  1  0
  5  4  1  0
  5  1  1  0
  5  6  1  1
  6  7  1  0
  3  9  1  1
  5 10  1  0
  2 11  1  6
 10 11  1  0
  1  8  1  6
 11 14  1  0
  7 12  1  0
  8 13  1  0
 17 18  1  0
 16 17  1  0
 15 16  1  0
 14 15  1  0
A    9
R3
A   12
R1
A   13
R2
M  END
>  <symbol>  (795)
moeon2lna

>  <m_abbr>  (795)
moeon2lna

>  <m_type>  (795)
rna

>  <m_subtype>  (795)
natural

>  <m_RgroupIdx>  (795)
11,12,8

>  <m_Rgroups>  (795)
H,H,OH

$$$$

     RDKit          2D

 13 14  0  0  0  0  0  0  0  0999 V2000
    3.6218    2.8416    0.0000 C   0  0  0  0  0  0  0  0  0  0  0  0
    5.9563    1.5401    0.0000 S   0  0  0  0  0  0  0  0  0  0  0  0
    4.0689    4.4714    0.0000 C   0  0  0  0  0  0  0  0  0  0  0  0
    4.4393    2.9941    0.0000 C   0  0  0  0  0  0  0  0  0  0  0  0
    5.9777    2.9808    0.0000 C   0  0  0  0  0  0  0  0  0  0  0  0
    6.5295    4.4317    0.0000 C   0  0  0  0  0  0  0  0  0  0  0  0
    5.3625    5.4086    0.0000 O   0  0  0  0  0  0  0  0  0  0  0  0
    2.6378    4.9923    0.0000 C   0  0  0  0  0  0  0  0  0  0  0  0
    8.0047    4.8103    0.0000 R#  0  0  0  0  0  0  0  0  0  0  0  0
    1.4711    4.0133    0.0000 O   0  0  0  0  0  0  0  0  0  0  0  0
    0.0000    4.4075    0.0000 R#  0  0  0  0  0  0  0  0  0  0  0  0
    4.0451    1.5230    0.0000 O   0  0  0  0  0  0  0  0  0  0  0  0
    4.0451    0.0000    0.0000 R#  0  0  0  0  0  0  0  0  0  0  0  0
  1  2  1  0
  3  4  1  0
  4  5  1  0
  5  6  1  0
  6  7  1  0
  3  7  1  0
  3  8  1  1
  6  9  1  1
  8 10  1  0
  3  1  1  0
  5  2  1  6
 10 11  1  0
  4 12  1  6
 12 13  1  0
A    9
R3
A   11
R1
A   13
R2
M  END
>  <symbol>  (796)
s2lna

>  <m_abbr>  (796)
s2lna

>  <m_type>  (796)
rna

>  <m_subtype>  (796)
natural

>  <m_RgroupIdx>  (796)
10,12,8

>  <m_Rgroups>  (796)
H,H,OH

$$$$

     RDKit          2D

 16 18  0  0  0  0  0  0  0  0999 V2000
    3.9013    1.5452    0.0000 C   0  0  0  0  0  0  0  0  0  0  0  0
    5.4243    1.5452    0.0000 C   0  0  0  0  0  0  0  0  0  0  0  0
    5.8949    2.9938    0.0000 C   0  0  0  0  0  0  0  0  0  0  0  0
    4.6629    3.8889    0.0000 O   0  0  0  0  0  0  0  0  0  0  0  0
    3.4308    2.9938    0.0000 C   0  0  0  0  0  0  0  0  0  0  0  0
    3.4572    4.0413    0.0000 C   0  0  0  0  0  0  0  0  0  0  0  0
    5.2673    2.7374    0.0000 O   0  0  0  0  0  0  0  0  0  0  0  0
    7.3435    3.4644    0.0000 R#  0  0  0  0  0  0  0  0  0  0  0  0
    4.5187    0.1586    0.0000 O   0  0  0  0  0  0  0  0  0  0  0  0
    1.9462    3.3093    0.0000 C   0  0  0  0  0  0  0  0  0  0  0  0
    0.9218    2.1786    0.0000 C   0  0  0  0  0  0  0  0  0  0  0  0
    1.3925    0.7301    0.0000 C   0  0  0  0  0  0  0  0  0  0  0  0
    2.8823    0.4133    0.0000 C   0  0  0  0  0  0  0  0  0  0  0  0
    1.4712    4.7562    0.0000 O   0  0  0  0  0  0  0  0  0  0  0  0
    0.0000    5.1504    0.0000 R#  0  0  0  0  0  0  0  0  0  0  0  0
    6.0282    0.0000    0.0000 R#  0  0  0  0  0  0  0  0  0  0  0  0
  1  2  1  0
  2  3  1  0
  3  4  1  0
  4  5  1  0
  5  1  1  0
  5  6  1  1
  2  7  1  1
  7  6  1  0
  3  8  1  1
  1  9  1  1
  5 10  1  0
 10 11  1  0
 11 12  1  0
 12 13  1  0
 13  1  1  0
 10 14  1  6
 14 15  1  0
  9 16  1  0
A    8
R3
A   15
R1
A   16
R2
M  END
>  <symbol>  (797)
aLtrina2

>  <m_abbr>  (797)
aLtrina2

>  <m_type>  (797)
rna

>  <m_subtype>  (797)
natural

>  <m_RgroupIdx>  (797)
14,15,7

>  <m_Rgroups>  (797)
H,H,OH

$$$$

     RDKit          2D

 15 15  0  0  0  0  0  0  0  0999 V2000
    3.9168    4.1935    0.0000 C   0  0  0  0  0  0  0  0  0  0  0  0
    4.2872    2.7162    0.0000 C   0  0  0  0  0  0  0  0  0  0  0  0
    5.8255    2.7029    0.0000 C   0  0  0  0  0  0  0  0  0  0  0  0
    6.3773    4.1538    0.0000 C   0  0  0  0  0  0  0  0  0  0  0  0
    5.2104    5.1307    0.0000 O   0  0  0  0  0  0  0  0  0  0  0  0
    3.3407    1.5230    0.0000 O   0  0  0  0  0  0  0  0  0  0  0  0
    2.4856    4.7144    0.0000 C   0  0  0  0  0  0  0  0  0  0  0  0
    7.8525    4.5324    0.0000 R#  0  0  0  0  0  0  0  0  0  0  0  0
    1.3189    3.7354    0.0000 O   0  0  0  0  0  0  0  0  0  0  0  0
    0.0000    4.4969    0.0000 R#  0  0  0  0  0  0  0  0  0  0  0  0
    3.3407    0.0000    0.0000 R#  0  0  0  0  0  0  0  0  0  0  0  0
    6.6397    1.4164    0.0000 O   0  0  0  0  0  0  0  0  0  0  0  0
   10.4472    0.0974    0.0000 C   0  0  0  0  0  0  0  0  0  0  0  0
    8.9242    0.0974    0.0000 C   0  0  0  0  0  0  0  0  0  0  0  0
    8.1627    1.4164    0.0000 C   0  0  0  0  0  0  0  0  0  0  0  0
  1  2  1  0
  2  3  1  0
  3  4  1  0
  4  5  1  0
  5  1  1  0
  2  6  1  6
  3 12  1  6
  1  7  1  1
  4  8  1  1
  7  9  1  0
  9 10  1  0
  6 11  1  0
 14 15  1  0
 13 14  1  0
 12 15  1  0
A    8
R3
A   10
R1
A   11
R2
M  END
>  <symbol>  (798)
pr2r

>  <m_abbr>  (798)
pr2r

>  <m_type>  (798)
rna

>  <m_subtype>  (798)
natural

>  <m_RgroupIdx>  (798)
9,10,7

>  <m_Rgroups>  (798)
H,H,OH

$$$$

     RDKit          2D

 16 16  0  0  0  0  0  0  0  0999 V2000
    3.9168    5.4150    0.0000 C   0  0  0  0  0  0  0  0  0  0  0  0
    4.2872    3.9377    0.0000 C   0  0  0  0  0  0  0  0  0  0  0  0
    5.8255    3.9244    0.0000 C   0  0  0  0  0  0  0  0  0  0  0  0
    6.3773    5.3753    0.0000 C   0  0  0  0  0  0  0  0  0  0  0  0
    5.2104    6.3522    0.0000 O   0  0  0  0  0  0  0  0  0  0  0  0
    3.3407    2.7445    0.0000 O   0  0  0  0  0  0  0  0  0  0  0  0
    2.4856    5.9359    0.0000 C   0  0  0  0  0  0  0  0  0  0  0  0
    7.8525    5.7539    0.0000 R#  0  0  0  0  0  0  0  0  0  0  0  0
    1.3189    4.9569    0.0000 O   0  0  0  0  0  0  0  0  0  0  0  0
    0.0000    5.7184    0.0000 R#  0  0  0  0  0  0  0  0  0  0  0  0
    3.3407    1.2215    0.0000 R#  0  0  0  0  0  0  0  0  0  0  0  0
    6.6397    2.6379    0.0000 O   0  0  0  0  0  0  0  0  0  0  0  0
   10.4472    1.3189    0.0000 C   0  0  0  0  0  0  0  0  0  0  0  0
    8.9242    1.3189    0.0000 C   0  0  0  0  0  0  0  0  0  0  0  0
    8.1627    2.6379    0.0000 C   0  0  0  0  0  0  0  0  0  0  0  0
   11.2087    0.0000    0.0000 N   0  0  0  0  0  0  0  0  0  0  0  0
  1  2  1  0
  2  3  1  0
  3  4  1  0
  4  5  1  0
  5  1  1  0
  2  6  1  6
  3 12  1  6
  1  7  1  1
  4  8  1  1
  7  9  1  0
  9 10  1  0
  6 11  1  0
 14 15  1  0
 13 14  1  0
 12 15  1  0
 13 16  1  0
A    8
R3
A   10
R1
A   11
R2
M  END
>  <symbol>  (799)
npr2r

>  <m_abbr>  (799)
npr2r

>  <m_type>  (799)
rna

>  <m_subtype>  (799)
natural

>  <m_RgroupIdx>  (799)
9,10,7

>  <m_Rgroups>  (799)
H,H,OH

$$$$

     RDKit          2D

 17 17  0  0  0  0  0  0  0  0999 V2000
    3.9168    5.4150    0.0000 C   0  0  0  0  0  0  0  0  0  0  0  0
    4.2872    3.9377    0.0000 C   0  0  0  0  0  0  0  0  0  0  0  0
    5.8256    3.9243    0.0000 C   0  0  0  0  0  0  0  0  0  0  0  0
    6.3774    5.3753    0.0000 C   0  0  0  0  0  0  0  0  0  0  0  0
    5.2104    6.3522    0.0000 O   0  0  0  0  0  0  0  0  0  0  0  0
    3.3407    2.7445    0.0000 O   0  0  0  0  0  0  0  0  0  0  0  0
    2.4856    5.9358    0.0000 C   0  0  0  0  0  0  0  0  0  0  0  0
    7.8526    5.7539    0.0000 R#  0  0  0  0  0  0  0  0  0  0  0  0
    1.3190    4.9569    0.0000 O   0  0  0  0  0  0  0  0  0  0  0  0
    0.0000    5.7184    0.0000 R#  0  0  0  0  0  0  0  0  0  0  0  0
    3.3407    1.2215    0.0000 R#  0  0  0  0  0  0  0  0  0  0  0  0
    6.6397    2.6379    0.0000 O   0  0  0  0  0  0  0  0  0  0  0  0
   10.4472    1.3189    0.0000 C   0  0  0  0  0  0  0  0  0  0  0  0
    8.9242    1.3189    0.0000 C   0  0  0  0  0  0  0  0  0  0  0  0
    8.1627    2.6379    0.0000 C   0  0  0  0  0  0  0  0  0  0  0  0
   11.2087    0.0000    0.0000 C   0  0  0  0  0  0  0  0  0  0  0  0
   12.7317    0.0000    0.0000 C   0  0  0  0  0  0  0  0  0  0  0  0
  1  2  1  0
  2  3  1  0
  3  4  1  0
  4  5  1  0
  5  1  1  0
  2  6  1  6
  3 12  1  6
  1  7  1  1
  4  8  1  1
  7  9  1  0
  9 10  1  0
  6 11  1  0
 14 15  1  0
 13 14  1  0
 12 15  1  0
 13 16  1  0
 16 17  1  0
A    8
R3
A   10
R1
A   11
R2
M  END
>  <symbol>  (800)
C52r

>  <m_abbr>  (800)
C52r

>  <m_type>  (800)
rna

>  <m_subtype>  (800)
natural

>  <m_RgroupIdx>  (800)
9,10,7

>  <m_Rgroups>  (800)
H,H,OH

$$$$

     RDKit          2D

 18 19  0  0  0  0  0  0  0  0999 V2000
    4.0153    7.2223    0.0000 C   0  0  0  0  0  0  0  0  0  0  0  0
    4.4177    5.7746    0.0000 C   0  0  0  0  0  0  0  0  0  0  0  0
    5.9352    5.8000    0.0000 C   0  0  0  0  0  0  0  0  0  0  0  0
    6.4430    7.2448    0.0000 C   0  0  0  0  0  0  0  0  0  0  0  0
    5.2677    8.1790    0.0000 O   0  0  0  0  0  0  0  0  0  0  0  0
    3.5095    4.5586    0.0000 O   0  0  0  0  0  0  0  0  0  0  0  0
    2.5764    7.7049    0.0000 C   0  0  0  0  0  0  0  0  0  0  0  0
    7.9014    7.6652    0.0000 R#  0  0  0  0  0  0  0  0  0  0  0  0
    1.4390    6.7001    0.0000 O   0  0  0  0  0  0  0  0  0  0  0  0
    0.0000    7.1828    0.0000 R#  0  0  0  0  0  0  0  0  0  0  0  0
    6.8229    4.5690    0.0000 O   0  0  0  0  0  0  0  0  0  0  0  0
    3.5095    3.0356    0.0000 R#  0  0  0  0  0  0  0  0  0  0  0  0
    6.8229    3.0460    0.0000 C   0  0  0  0  0  0  0  0  0  0  0  0
    5.5040    2.2845    0.0000 C   0  0  0  0  0  0  0  0  0  0  0  0
    5.5040    0.7615    0.0000 C   0  0  0  0  0  0  0  0  0  0  0  0
    6.8229    0.0000    0.0000 C   0  0  0  0  0  0  0  0  0  0  0  0
    8.1419    0.7615    0.0000 C   0  0  0  0  0  0  0  0  0  0  0  0
    8.1419    2.2845    0.0000 C   0  0  0  0  0  0  0  0  0  0  0  0
  1  2  1  0
  2  3  1  0
  3  4  1  0
  4  5  1  0
  5  1  1  0
  2  6  1  6
  3 11  1  6
  1  7  1  1
  4  8  1  1
  7  9  1  0
  9 10  1  0
  6 12  1  0
 11 13  1  0
 13 14  2  0
 14 15  1  0
 15 16  2  0
 16 17  1  0
 17 18  2  0
 18 13  1  0
A    8
R3
A   10
R1
A   12
R2
M  END
>  <symbol>  (801)
ph2r

>  <m_abbr>  (801)
ph2r

>  <m_type>  (801)
rna

>  <m_subtype>  (801)
natural

>  <m_RgroupIdx>  (801)
9,11,7

>  <m_Rgroups>  (801)
H,H,OH

$$$$

     RDKit          2D

 15 15  0  0  0  0  0  0  0  0999 V2000
    3.9168    4.1935    0.0000 C   0  0  0  0  0  0  0  0  0  0  0  0
    4.2872    2.7162    0.0000 C   0  0  0  0  0  0  0  0  0  0  0  0
    5.8256    2.7028    0.0000 C   0  0  0  0  0  0  0  0  0  0  0  0
    6.3774    4.1538    0.0000 C   0  0  0  0  0  0  0  0  0  0  0  0
    5.2104    5.1307    0.0000 O   0  0  0  0  0  0  0  0  0  0  0  0
    3.3407    1.5230    0.0000 O   0  0  0  0  0  0  0  0  0  0  0  0
    2.4856    4.7143    0.0000 C   0  0  0  0  0  0  0  0  0  0  0  0
    7.8526    4.5324    0.0000 R#  0  0  0  0  0  0  0  0  0  0  0  0
    1.3190    3.7354    0.0000 O   0  0  0  0  0  0  0  0  0  0  0  0
    0.0000    4.4969    0.0000 R#  0  0  0  0  0  0  0  0  0  0  0  0
    3.3407    0.0000    0.0000 R#  0  0  0  0  0  0  0  0  0  0  0  0
    6.6397    1.4164    0.0000 O   0  0  0  0  0  0  0  0  0  0  0  0
   10.4472    0.0974    0.0000 C   0  0  0  0  0  0  0  0  0  0  0  0
    8.9242    0.0974    0.0000 C   0  0  0  0  0  0  0  0  0  0  0  0
    8.1627    1.4164    0.0000 C   0  0  0  0  0  0  0  0  0  0  0  0
  1  2  1  0
  2  3  1  0
  3  4  1  0
  4  5  1  0
  5  1  1  0
  2  6  1  6
  3 12  1  6
  1  7  1  1
  4  8  1  1
  7  9  1  0
  9 10  1  0
  6 11  1  0
 14 15  1  0
 13 14  2  0
 12 15  1  0
A    8
R3
A   10
R1
A   11
R2
M  END
>  <symbol>  (802)
allyl2r

>  <m_abbr>  (802)
allyl2r

>  <m_type>  (802)
rna

>  <m_subtype>  (802)
natural

>  <m_RgroupIdx>  (802)
9,10,7

>  <m_Rgroups>  (802)
H,H,OH

$$$$

     RDKit          2D

 12 12  0  0  0  0  0  0  0  0999 V2000
    4.4547    5.1139    0.0000 O   0  0  0  0  0  0  0  0  0  0  0  0
    3.2280    4.2113    0.0000 C   0  0  0  0  0  0  0  0  0  0  0  0
    5.6922    4.2260    0.0000 C   0  0  0  0  0  0  0  0  0  0  0  0
    3.7072    2.7657    0.0000 C   0  0  0  0  0  0  0  0  0  0  0  0
    5.2301    2.7748    0.0000 C   0  0  0  0  0  0  0  0  0  0  0  0
    2.8193    1.5283    0.0000 O   0  0  0  0  0  0  0  0  0  0  0  0
    1.7767    4.6734    0.0000 C   0  0  0  0  0  0  0  0  0  0  0  0
    1.4513    6.1612    0.0000 O   0  0  0  0  0  0  0  0  0  0  0  0
    0.0000    6.6232    0.0000 R#  0  0  0  0  0  0  0  0  0  0  0  0
    7.1378    4.7052    0.0000 R#  0  0  0  0  0  0  0  0  0  0  0  0
    6.1326    1.5480    0.0000 C   0  0  0  0  0  0  0  0  0  0  0  0
    2.8193    0.0000    0.0000 R#  0  0  0  0  0  0  0  0  0  0  0  0
  1  2  1  0
  1  3  1  0
  2  4  1  0
  2  7  1  1
  3  5  1  0
  4  5  1  0
  4  6  1  6
  7  8  1  0
  8  9  1  0
  3 10  1  1
  5 11  1  6
  6 12  1  0
A    9
R1
A   10
R3
A   12
R2
M  END
>  <symbol>  (803)
Am2d

>  <m_abbr>  (803)
Am2d

>  <m_type>  (803)
rna

>  <m_subtype>  (803)
natural

>  <m_RgroupIdx>  (803)
8,11,9

>  <m_Rgroups>  (803)
H,H,OH

$$$$

     RDKit          2D

 11 11  0  0  0  0  0  0  0  0999 V2000
    4.0295    4.1941    0.0000 C   0  0  0  0  0  0  0  0  0  0  0  0
    4.4725    2.7370    0.0000 C   0  0  0  0  0  0  0  0  0  0  0  0
    5.9952    2.7080    0.0000 C   0  0  0  0  0  0  0  0  0  0  0  0
    6.4933    4.1473    0.0000 C   0  0  0  0  0  0  0  0  0  0  0  0
    5.2784    5.0658    0.0000 S   0  0  0  0  0  0  0  0  0  0  0  0
    2.5902    4.6923    0.0000 C   0  0  0  0  0  0  0  0  0  0  0  0
    3.5540    1.5221    0.0000 O   0  0  0  0  0  0  0  0  0  0  0  0
    1.4392    3.6949    0.0000 O   0  0  0  0  0  0  0  0  0  0  0  0
    0.0000    4.1930    0.0000 R#  0  0  0  0  0  0  0  0  0  0  0  0
    3.6047    0.0000    0.0000 R#  0  0  0  0  0  0  0  0  0  0  0  0
    7.9504    4.5902    0.0000 R#  0  0  0  0  0  0  0  0  0  0  0  0
  1  2  1  0
  2  3  1  0
  3  4  1  0
  4  5  1  0
  5  1  1  0
  1  6  1  1
  2  7  1  6
  6  8  1  0
  8  9  1  0
  7 10  1  0
  4 11  1  1
A    9
R1
A   10
R2
A   11
R3
M  END
>  <symbol>  (804)
s4d

>  <m_abbr>  (804)
s4d

>  <m_type>  (804)
rna

>  <m_subtype>  (804)
natural

>  <m_RgroupIdx>  (804)
8,9,10

>  <m_Rgroups>  (804)
H,H,OH

$$$$

     RDKit          2D

 11 11  0  0  0  0  0  0  0  0999 V2000
    4.0294    4.1942    0.0000 C   0  0  0  0  0  0  0  0  0  0  0  0
    4.4724    2.7370    0.0000 C   0  0  0  0  0  0  0  0  0  0  0  0
    5.9952    2.7080    0.0000 C   0  0  0  0  0  0  0  0  0  0  0  0
    6.4881    4.1324    0.0000 C   0  0  0  0  0  0  0  0  0  0  0  0
    5.2784    5.0658    0.0000 C   0  0  0  0  0  0  0  0  0  0  0  0
    2.5902    4.6923    0.0000 C   0  0  0  0  0  0  0  0  0  0  0  0
    3.5539    1.5222    0.0000 O   0  0  0  0  0  0  0  0  0  0  0  0
    1.4392    3.6949    0.0000 O   0  0  0  0  0  0  0  0  0  0  0  0
    0.0000    4.1930    0.0000 R#  0  0  0  0  0  0  0  0  0  0  0  0
    3.6047    0.0000    0.0000 R#  0  0  0  0  0  0  0  0  0  0  0  0
    7.9504    4.5903    0.0000 R#  0  0  0  0  0  0  0  0  0  0  0  0
  1  2  1  0
  2  3  1  0
  3  4  1  0
  4  5  1  0
  5  1  1  0
  1  6  1  1
  2  7  1  6
  6  8  1  0
  8  9  1  0
  7 10  1  0
  4 11  1  1
A    9
R1
A   10
R2
A   11
R3
M  END
>  <symbol>  (805)
c4d

>  <m_abbr>  (805)
c4d

>  <m_type>  (805)
rna

>  <m_subtype>  (805)
natural

>  <m_RgroupIdx>  (805)
8,9,10

>  <m_Rgroups>  (805)
H,H,OH

$$$$

     RDKit          2D

 13 13  0  0  0  0  0  0  0  0999 V2000
    3.9167    4.1934    0.0000 C   0  0  0  0  0  0  0  0  0  0  0  0
    4.2872    2.7161    0.0000 C   0  0  0  0  0  0  0  0  0  0  0  0
    5.8255    2.7028    0.0000 C   0  0  0  0  0  0  0  0  0  0  0  0
    6.3773    4.1537    0.0000 C   0  0  0  0  0  0  0  0  0  0  0  0
    5.2104    5.1307    0.0000 O   0  0  0  0  0  0  0  0  0  0  0  0
    3.3407    1.5230    0.0000 O   0  0  0  0  0  0  0  0  0  0  0  0
    2.4856    4.7143    0.0000 C   0  0  0  0  0  0  0  0  0  0  0  0
    7.8525    4.5323    0.0000 R#  0  0  0  0  0  0  0  0  0  0  0  0
    1.3189    3.7353    0.0000 O   0  0  0  0  0  0  0  0  0  0  0  0
    0.0000    4.4968    0.0000 R#  0  0  0  0  0  0  0  0  0  0  0  0
    3.3407    0.0000    0.0000 R#  0  0  0  0  0  0  0  0  0  0  0  0
    6.6397    1.4163    0.0000 C   0  0  0  0  0  0  0  0  0  0  0  0
    8.1626    1.4163    0.0000 C   0  0  0  0  0  0  0  0  0  0  0  0
  1  2  1  0
  2  3  1  0
  3  4  1  0
  4  5  1  0
  5  1  1  0
  2  6  1  6
  3 12  1  6
  1  7  1  1
  4  8  1  1
  7  9  1  0
  9 10  1  0
  6 11  1  0
 12 13  1  0
A    8
R3
A   10
R1
A   11
R2
M  END
>  <symbol>  (806)
Ae2d

>  <m_abbr>  (806)
Ae2d

>  <m_type>  (806)
rna

>  <m_subtype>  (806)
natural

>  <m_RgroupIdx>  (806)
9,10,7

>  <m_Rgroups>  (806)
H,H,OH

$$$$

     RDKit          2D

 20 20  0  0  0  0  0  0  0  0999 V2000
    4.4547    7.6892    0.0000 O   0  0  0  0  0  0  0  0  0  0  0  0
    3.2279    6.7867    0.0000 C   0  0  0  0  0  0  0  0  0  0  0  0
    5.6921    6.8013    0.0000 C   0  0  0  0  0  0  0  0  0  0  0  0
    3.7071    5.3410    0.0000 C   0  0  0  0  0  0  0  0  0  0  0  0
    5.2300    5.3501    0.0000 C   0  0  0  0  0  0  0  0  0  0  0  0
    2.8192    4.1036    0.0000 O   0  0  0  0  0  0  0  0  0  0  0  0
    1.7767    7.2487    0.0000 C   0  0  0  0  0  0  0  0  0  0  0  0
    1.4512    8.7365    0.0000 O   0  0  0  0  0  0  0  0  0  0  0  0
    0.0000    9.1985    0.0000 R#  0  0  0  0  0  0  0  0  0  0  0  0
    7.1377    7.2805    0.0000 R#  0  0  0  0  0  0  0  0  0  0  0  0
    6.1325    4.1233    0.0000 O   0  0  0  0  0  0  0  0  0  0  0  0
    2.8192    2.5753    0.0000 R#  0  0  0  0  0  0  0  0  0  0  0  0
    7.6608    4.1233    0.0000 C   0  0  0  0  0  0  0  0  0  0  0  0
    8.4250    2.7998    0.0000 N   0  0  0  0  0  0  0  0  0  0  0  0
    8.4250    5.4469    0.0000 O   0  0  0  0  0  0  0  0  0  0  0  0
    9.9533    2.7998    0.0000 C   0  0  0  0  0  0  0  0  0  0  0  0
   10.7174    1.4762    0.0000 C   0  0  0  0  0  0  0  0  0  0  0  0
   12.2457    1.4762    0.0000 N   0  0  0  0  0  0  0  0  0  0  0  0
   12.6413    0.0000    0.0000 C   0  0  0  0  0  0  0  0  0  0  0  0
   13.1761    2.6887    0.0000 C   0  0  0  0  0  0  0  0  0  0  0  0
  1  2  1  0
  1  3  1  0
  2  4  1  0
  2  7  1  1
  3  5  1  0
  4  5  1  0
  4  6  1  6
  7  8  1  0
  8  9  1  0
  3 10  1  1
  5 11  1  6
  6 12  1  0
 11 13  1  0
 13 14  1  0
 13 15  2  0
 14 16  1  0
 16 17  1  0
 17 18  1  0
 18 19  1  0
 18 20  1  0
A    9
R1
A   10
R3
A   12
R2
M  END
>  <symbol>  (807)
m2nenc2r

>  <m_abbr>  (807)
m2nenc2r

>  <m_type>  (807)
rna

>  <m_subtype>  (807)
natural

>  <m_RgroupIdx>  (807)
8,11,9

>  <m_Rgroups>  (807)
H,H,OH

$$$$

     RDKit          2D

 18 19  0  0  0  0  0  0  0  0999 V2000
    4.0295    6.8420    0.0000 C   0  0  0  0  0  0  0  0  0  0  0  0
    4.4724    5.3848    0.0000 C   0  0  0  0  0  0  0  0  0  0  0  0
    5.9952    5.3559    0.0000 C   0  0  0  0  0  0  0  0  0  0  0  0
    6.4933    6.7951    0.0000 C   0  0  0  0  0  0  0  0  0  0  0  0
    5.2784    7.7136    0.0000 O   0  0  0  0  0  0  0  0  0  0  0  0
    2.5902    7.3401    0.0000 C   0  0  0  0  0  0  0  0  0  0  0  0
    3.5540    4.1700    0.0000 O   0  0  0  0  0  0  0  0  0  0  0  0
    1.4392    6.3427    0.0000 O   0  0  0  0  0  0  0  0  0  0  0  0
    0.0000    6.8409    0.0000 R#  0  0  0  0  0  0  0  0  0  0  0  0
    3.6047    2.6478    0.0000 R#  0  0  0  0  0  0  0  0  0  0  0  0
    7.9504    7.2381    0.0000 R#  0  0  0  0  0  0  0  0  0  0  0  0
    6.8668    4.1069    0.0000 S   0  0  0  0  0  0  0  0  0  0  0  0
    7.5342    2.7380    0.0000 C   0  0  0  0  0  0  0  0  0  0  0  0
    6.6824    1.4755    0.0000 C   0  0  0  0  0  0  0  0  0  0  0  0
    7.3498    0.1065    0.0000 C   0  0  0  0  0  0  0  0  0  0  0  0
    8.8691    0.0000    0.0000 C   0  0  0  0  0  0  0  0  0  0  0  0
    9.7209    1.2625    0.0000 C   0  0  0  0  0  0  0  0  0  0  0  0
    9.0535    2.6315    0.0000 C   0  0  0  0  0  0  0  0  0  0  0  0
  1  2  1  0
  2  3  1  0
  3  4  1  0
  4  5  1  0
  5  1  1  0
  1  6  1  1
  2  7  1  6
  6  8  1  0
  8  9  1  0
  7 10  1  0
  4 11  1  1
  3 12  1  6
 12 13  1  0
 13 14  2  0
 14 15  1  0
 15 16  2  0
 16 17  1  0
 17 18  2  0
 18 13  1  0
A    9
R1
A   10
R2
A   11
R3
M  END
>  <symbol>  (808)
phs2r

>  <m_abbr>  (808)
phs2r

>  <m_type>  (808)
rna

>  <m_subtype>  (808)
natural

>  <m_RgroupIdx>  (808)
8,9,10

>  <m_Rgroups>  (808)
H,H,OH

$$$$

     RDKit          2D

 15 15  0  0  0  0  0  0  0  0999 V2000
    4.0295    5.0195    0.0000 C   0  0  0  0  0  0  0  0  0  0  0  0
    4.4724    3.5624    0.0000 C   0  0  0  0  0  0  0  0  0  0  0  0
    5.9952    3.5334    0.0000 C   0  0  0  0  0  0  0  0  0  0  0  0
    6.4881    4.9577    0.0000 C   0  0  0  0  0  0  0  0  0  0  0  0
    5.2784    5.8911    0.0000 O   0  0  0  0  0  0  0  0  0  0  0  0
    2.5902    5.5176    0.0000 C   0  0  0  0  0  0  0  0  0  0  0  0
    3.5540    2.3475    0.0000 O   0  0  0  0  0  0  0  0  0  0  0  0
    1.4392    4.5203    0.0000 O   0  0  0  0  0  0  0  0  0  0  0  0
    0.0000    5.0184    0.0000 R#  0  0  0  0  0  0  0  0  0  0  0  0
    3.6047    0.8254    0.0000 R#  0  0  0  0  0  0  0  0  0  0  0  0
    6.8667    2.2845    0.0000 O   0  0  0  0  0  0  0  0  0  0  0  0
    7.9504    5.4156    0.0000 R#  0  0  0  0  0  0  0  0  0  0  0  0
    6.8667    0.7615    0.0000 C   0  0  0  0  0  0  0  0  0  0  0  0
    8.1857    0.0000    0.0000 C   0  0  0  0  0  0  0  0  0  0  0  0
    9.6294    0.7932    0.0000 F   0  0  0  0  0  0  0  0  0  0  0  0
  1  2  1  0
  2  3  1  0
  3  4  1  0
  4  5  1  0
  5  1  1  0
  1  6  1  1
  2  7  1  6
  6  8  1  0
  8  9  1  0
  7 10  1  0
  3 11  1  6
  4 12  1  1
 11 13  1  0
 13 14  1  0
 14 15  1  0
A    9
R1
A   10
R2
A   12
R3
M  END
>  <symbol>  (809)
fle2r

>  <m_abbr>  (809)
fle2r

>  <m_type>  (809)
rna

>  <m_subtype>  (809)
natural

>  <m_RgroupIdx>  (809)
8,9,11

>  <m_Rgroups>  (809)
H,H,OH

$$$$

     RDKit          2D

 17 17  0  0  0  0  0  0  0  0999 V2000
    4.4548    6.2130    0.0000 O   0  0  0  0  0  0  0  0  0  0  0  0
    3.2280    5.3105    0.0000 C   0  0  0  0  0  0  0  0  0  0  0  0
    5.6922    5.3252    0.0000 C   0  0  0  0  0  0  0  0  0  0  0  0
    3.7072    3.8649    0.0000 C   0  0  0  0  0  0  0  0  0  0  0  0
    5.2301    3.8739    0.0000 C   0  0  0  0  0  0  0  0  0  0  0  0
    2.8193    2.6274    0.0000 O   0  0  0  0  0  0  0  0  0  0  0  0
    1.7768    5.7725    0.0000 C   0  0  0  0  0  0  0  0  0  0  0  0
    1.4513    7.2603    0.0000 O   0  0  0  0  0  0  0  0  0  0  0  0
    0.0000    7.7224    0.0000 R#  0  0  0  0  0  0  0  0  0  0  0  0
    7.1378    5.8044    0.0000 R#  0  0  0  0  0  0  0  0  0  0  0  0
    6.1326    2.6471    0.0000 O   0  0  0  0  0  0  0  0  0  0  0  0
    2.8193    1.0991    0.0000 R#  0  0  0  0  0  0  0  0  0  0  0  0
    7.6609    2.6471    0.0000 C   0  0  0  0  0  0  0  0  0  0  0  0
    8.4251    1.3236    0.0000 N   0  0  0  0  0  0  0  0  0  0  0  0
    8.4251    3.9707    0.0000 O   0  0  0  0  0  0  0  0  0  0  0  0
    9.9534    1.3236    0.0000 C   0  0  0  0  0  0  0  0  0  0  0  0
    7.6609    0.0000    0.0000 C   0  0  0  0  0  0  0  0  0  0  0  0
  1  2  1  0
  1  3  1  0
  2  4  1  0
  2  7  1  1
  3  5  1  0
  4  5  1  0
  4  6  1  6
  7  8  1  0
  8  9  1  0
  3 10  1  1
  5 11  1  6
  6 12  1  0
 11 13  1  0
 13 14  1  0
 13 15  2  0
 14 16  1  0
 14 17  1  0
A    9
R1
A   10
R3
A   12
R2
M  END
>  <symbol>  (810)
m2nc2r

>  <m_abbr>  (810)
m2nc2r

>  <m_type>  (810)
rna

>  <m_subtype>  (810)
natural

>  <m_RgroupIdx>  (810)
8,11,9

>  <m_Rgroups>  (810)
H,H,OH

$$$$

     RDKit          2D

 18 18  0  0  0  0  0  0  0  0999 V2000
    3.9168    6.7248    0.0000 C   0  0  0  0  0  0  0  0  0  0  0  0
    4.2872    5.2475    0.0000 C   0  0  0  0  0  0  0  0  0  0  0  0
    5.8256    5.2341    0.0000 C   0  0  0  0  0  0  0  0  0  0  0  0
    6.3754    6.6800    0.0000 C   0  0  0  0  0  0  0  0  0  0  0  0
    5.2104    7.6620    0.0000 O   0  0  0  0  0  0  0  0  0  0  0  0
    3.3407    4.0543    0.0000 O   0  0  0  0  0  0  0  0  0  0  0  0
    2.4856    7.2456    0.0000 C   0  0  0  0  0  0  0  0  0  0  0  0
    7.8526    7.0637    0.0000 R#  0  0  0  0  0  0  0  0  0  0  0  0
    1.3190    6.2667    0.0000 O   0  0  0  0  0  0  0  0  0  0  0  0
    0.0000    7.0282    0.0000 R#  0  0  0  0  0  0  0  0  0  0  0  0
    3.3407    2.5313    0.0000 R#  0  0  0  0  0  0  0  0  0  0  0  0
    6.6397    3.9477    0.0000 O   0  0  0  0  0  0  0  0  0  0  0  0
    8.9242    2.6287    0.0000 C   0  0  0  0  0  0  0  0  0  0  0  0
    8.1627    3.9477    0.0000 C   0  0  0  0  0  0  0  0  0  0  0  0
   10.4472    2.6287    0.0000 O   0  0  0  0  0  0  0  0  0  0  0  0
   11.2061    1.3143    0.0000 N   0  0  0  0  0  0  0  0  0  0  0  0
   12.7238    1.3143    0.0000 C   0  0  0  0  0  0  0  0  0  0  0  0
   10.4472    0.0000    0.0000 C   0  0  0  0  0  0  0  0  0  0  0  0
  1  2  1  0
  2  3  1  0
  3  4  1  0
  4  5  1  0
  5  1  1  0
  2  6  1  6
  3 12  1  6
  1  7  1  1
  4  8  1  1
  7  9  1  0
  9 10  1  0
  6 11  1  0
 13 14  1  0
 15 13  1  0
 12 14  1  0
 16 18  1  0
 16 17  1  0
 15 16  1  0
A    8
R3
A   10
R1
A   11
R2
M  END
>  <symbol>  (811)
dmaoe

>  <m_abbr>  (811)
dmaoe

>  <m_type>  (811)
rna

>  <m_subtype>  (811)
natural

>  <m_RgroupIdx>  (811)
9,10,7

>  <m_Rgroups>  (811)
H,H,OH

$$$$

     RDKit          2D

 18 18  0  0  0  0  0  0  0  0999 V2000
    4.0153    8.7452    0.0000 C   0  0  0  0  0  0  0  0  0  0  0  0
    4.4176    7.2976    0.0000 C   0  0  0  0  0  0  0  0  0  0  0  0
    5.9351    7.3230    0.0000 C   0  0  0  0  0  0  0  0  0  0  0  0
    6.4430    8.7678    0.0000 C   0  0  0  0  0  0  0  0  0  0  0  0
    5.2676    9.7020    0.0000 O   0  0  0  0  0  0  0  0  0  0  0  0
    3.5095    6.0816    0.0000 O   0  0  0  0  0  0  0  0  0  0  0  0
    2.5764    9.2279    0.0000 C   0  0  0  0  0  0  0  0  0  0  0  0
    7.9013    9.1881    0.0000 R#  0  0  0  0  0  0  0  0  0  0  0  0
    1.4389    8.2231    0.0000 O   0  0  0  0  0  0  0  0  0  0  0  0
    0.0000    8.7057    0.0000 R#  0  0  0  0  0  0  0  0  0  0  0  0
    6.8229    6.0920    0.0000 O   0  0  0  0  0  0  0  0  0  0  0  0
    3.5095    4.5586    0.0000 R#  0  0  0  0  0  0  0  0  0  0  0  0
    6.8229    4.5690    0.0000 C   0  0  0  0  0  0  0  0  0  0  0  0
    8.1418    3.8075    0.0000 C   0  0  0  0  0  0  0  0  0  0  0  0
    8.1418    2.2845    0.0000 N   0  0  0  0  0  0  0  0  0  0  0  0
    9.4608    1.5230    0.0000 C   0  0  0  0  0  0  0  0  0  0  0  0
    9.4608    0.0000    0.0000 N   0  0  0  0  0  0  0  0  0  0  0  0
   10.7798    2.2845    0.0000 N   0  0  0  0  0  0  0  0  0  0  0  0
  1  2  1  0
  2  3  1  0
  3  4  1  0
  4  5  1  0
  5  1  1  0
  2  6  1  6
  3 11  1  6
  1  7  1  1
  4  8  1  1
  7  9  1  0
  9 10  1  0
  6 12  1  0
 11 13  1  0
 13 14  1  0
 14 15  1  0
 15 16  1  0
 16 17  2  0
 16 18  1  0
A    8
R3
A   10
R1
A   12
R2
M  END
>  <symbol>  (812)
guane2r

>  <m_abbr>  (812)
guane2r

>  <m_type>  (812)
rna

>  <m_subtype>  (812)
natural

>  <m_RgroupIdx>  (812)
9,11,7

>  <m_Rgroups>  (812)
H,H,OH

$$$$

     RDKit          2D

 20 20  0  0  0  0  0  0  0  0999 V2000
    4.4547    7.5365    0.0000 O   0  0  0  0  0  0  0  0  0  0  0  0
    3.2280    6.6339    0.0000 C   0  0  0  0  0  0  0  0  0  0  0  0
    5.6921    6.6486    0.0000 C   0  0  0  0  0  0  0  0  0  0  0  0
    3.7071    5.1883    0.0000 C   0  0  0  0  0  0  0  0  0  0  0  0
    5.2301    5.1974    0.0000 C   0  0  0  0  0  0  0  0  0  0  0  0
    2.8193    3.9509    0.0000 O   0  0  0  0  0  0  0  0  0  0  0  0
    1.7767    7.0960    0.0000 C   0  0  0  0  0  0  0  0  0  0  0  0
    1.4512    8.5838    0.0000 O   0  0  0  0  0  0  0  0  0  0  0  0
    0.0000    9.0458    0.0000 R#  0  0  0  0  0  0  0  0  0  0  0  0
    7.1378    7.1278    0.0000 R#  0  0  0  0  0  0  0  0  0  0  0  0
    6.1326    3.9706    0.0000 O   0  0  0  0  0  0  0  0  0  0  0  0
    2.8193    2.4226    0.0000 R#  0  0  0  0  0  0  0  0  0  0  0  0
    7.6609    3.9706    0.0000 C   0  0  0  0  0  0  0  0  0  0  0  0
    8.4250    2.6470    0.0000 C   0  0  0  0  0  0  0  0  0  0  0  0
    9.9533    2.6470    0.0000 O   0  0  0  0  0  0  0  0  0  0  0  0
   10.7175    1.3235    0.0000 N   0  0  0  0  0  0  0  0  0  0  0  0
    9.9533    0.0000    0.0000 C   0  0  0  0  0  0  0  0  0  0  0  0
   12.2458    1.3235    0.0000 C   0  0  0  0  0  0  0  0  0  0  0  0
   13.0099    0.0000    0.0000 C   0  0  0  0  0  0  0  0  0  0  0  0
   13.0099    2.6470    0.0000 C   0  0  0  0  0  0  0  0  0  0  0  0
  1  2  1  0
  1  3  1  0
  2  4  1  0
  2  7  1  1
  3  5  1  0
  4  5  1  0
  4  6  1  6
  7  8  1  0
  8  9  1  0
  3 10  1  1
  5 11  1  6
  6 12  1  0
 11 13  1  0
 13 14  1  0
 14 15  1  0
 15 16  1  0
 16 17  1  0
 16 18  1  0
 18 19  1  0
 18 20  1  0
A    9
R1
A   10
R3
A   12
R2
M  END
>  <symbol>  (813)
iprmnoe2r

>  <m_abbr>  (813)
iprmnoe2r

>  <m_type>  (813)
rna

>  <m_subtype>  (813)
natural

>  <m_RgroupIdx>  (813)
8,11,9

>  <m_Rgroups>  (813)
H,H,OH

$$$$

     RDKit          2D

 20 20  0  0  0  0  0  0  0  0999 V2000
    4.0153    7.2169    0.0000 C   0  0  0  0  0  0  0  0  0  0  0  0
    4.4177    5.7693    0.0000 C   0  0  0  0  0  0  0  0  0  0  0  0
    5.9352    5.7947    0.0000 C   0  0  0  0  0  0  0  0  0  0  0  0
    6.4430    7.2395    0.0000 C   0  0  0  0  0  0  0  0  0  0  0  0
    5.2677    8.1737    0.0000 O   0  0  0  0  0  0  0  0  0  0  0  0
    3.5095    4.5533    0.0000 O   0  0  0  0  0  0  0  0  0  0  0  0
    2.5764    7.6996    0.0000 C   0  0  0  0  0  0  0  0  0  0  0  0
    7.9014    7.6599    0.0000 R#  0  0  0  0  0  0  0  0  0  0  0  0
    1.4390    6.6948    0.0000 O   0  0  0  0  0  0  0  0  0  0  0  0
    0.0000    7.1774    0.0000 R#  0  0  0  0  0  0  0  0  0  0  0  0
    6.8229    4.5637    0.0000 O   0  0  0  0  0  0  0  0  0  0  0  0
    3.5095    3.0303    0.0000 R#  0  0  0  0  0  0  0  0  0  0  0  0
    6.8229    3.0407    0.0000 C   0  0  0  0  0  0  0  0  0  0  0  0
    8.1419    2.2792    0.0000 C   0  0  0  0  0  0  0  0  0  0  0  0
    9.4609    3.0407    0.0000 O   0  0  0  0  0  0  0  0  0  0  0  0
   10.7798    2.2792    0.0000 N   0  0  0  0  0  0  0  0  0  0  0  0
   12.0942    3.0381    0.0000 C   0  0  0  0  0  0  0  0  0  0  0  0
   10.7798    0.7615    0.0000 C   0  0  0  0  0  0  0  0  0  0  0  0
   13.4131    2.2766    0.0000 C   0  0  0  0  0  0  0  0  0  0  0  0
   12.0988    0.0000    0.0000 C   0  0  0  0  0  0  0  0  0  0  0  0
  1  2  1  0
  2  3  1  0
  3  4  1  0
  4  5  1  0
  5  1  1  0
  2  6  1  6
  3 11  1  6
  1  7  1  1
  4  8  1  1
  7  9  1  0
  9 10  1  0
  6 12  1  0
 11 13  1  0
 13 14  1  0
 14 15  1  0
 15 16  1  0
 16 18  1  0
 16 17  1  0
 17 19  1  0
 18 20  1  0
A    8
R3
A   10
R1
A   12
R2
M  END
>  <symbol>  (814)
e2noe2r

>  <m_abbr>  (814)
e2noe2r

>  <m_type>  (814)
rna

>  <m_subtype>  (814)
natural

>  <m_RgroupIdx>  (814)
9,11,7

>  <m_Rgroups>  (814)
H,H,OH

$$$$

     RDKit          2D

 16 16  0  0  0  0  0  0  0  0999 V2000
    3.9168    5.4150    0.0000 C   0  0  0  0  0  0  0  0  0  0  0  0
    4.2872    3.9377    0.0000 C   0  0  0  0  0  0  0  0  0  0  0  0
    5.8256    3.9243    0.0000 C   0  0  0  0  0  0  0  0  0  0  0  0
    6.3774    5.3753    0.0000 C   0  0  0  0  0  0  0  0  0  0  0  0
    5.2104    6.3522    0.0000 O   0  0  0  0  0  0  0  0  0  0  0  0
    3.3407    2.7445    0.0000 O   0  0  0  0  0  0  0  0  0  0  0  0
    2.4856    5.9358    0.0000 C   0  0  0  0  0  0  0  0  0  0  0  0
    7.8526    5.7539    0.0000 R#  0  0  0  0  0  0  0  0  0  0  0  0
    1.3190    4.9569    0.0000 O   0  0  0  0  0  0  0  0  0  0  0  0
    0.0000    5.7184    0.0000 R#  0  0  0  0  0  0  0  0  0  0  0  0
    3.3407    1.2215    0.0000 R#  0  0  0  0  0  0  0  0  0  0  0  0
    6.6397    2.6379    0.0000 O   0  0  0  0  0  0  0  0  0  0  0  0
   10.4472    1.3189    0.0000 C   0  0  0  0  0  0  0  0  0  0  0  0
    8.9242    1.3189    0.0000 C   0  0  0  0  0  0  0  0  0  0  0  0
    8.1627    2.6379    0.0000 C   0  0  0  0  0  0  0  0  0  0  0  0
   11.2087    0.0000    0.0000 C   0  0  0  0  0  0  0  0  0  0  0  0
  1  2  1  0
  2  3  1  0
  3  4  1  0
  4  5  1  0
  5  1  1  0
  2  6  1  6
  3 12  1  6
  1  7  1  1
  4  8  1  1
  7  9  1  0
  9 10  1  0
  6 11  1  0
 14 15  1  0
 13 14  1  0
 12 15  1  0
 13 16  1  0
A    8
R3
A   10
R1
A   11
R2
M  END
>  <symbol>  (815)
bu2r

>  <m_abbr>  (815)
bu2r

>  <m_type>  (815)
rna

>  <m_subtype>  (815)
natural

>  <m_RgroupIdx>  (815)
9,10,7

>  <m_Rgroups>  (815)
H,H,OH

$$$$

     RDKit          2D

 13 13  0  0  0  0  0  0  0  0999 V2000
    4.0295    4.1942    0.0000 C   0  0  0  0  0  0  0  0  0  0  0  0
    4.4724    2.7370    0.0000 C   0  0  0  0  0  0  0  0  0  0  0  0
    5.9952    2.7080    0.0000 C   0  0  0  0  0  0  0  0  0  0  0  0
    6.4933    4.1473    0.0000 C   0  0  0  0  0  0  0  0  0  0  0  0
    5.2784    5.0657    0.0000 O   0  0  0  0  0  0  0  0  0  0  0  0
    2.5902    4.6923    0.0000 C   0  0  0  0  0  0  0  0  0  0  0  0
    3.5540    1.5221    0.0000 O   0  0  0  0  0  0  0  0  0  0  0  0
    1.4392    3.6949    0.0000 O   0  0  0  0  0  0  0  0  0  0  0  0
    0.0000    4.1930    0.0000 R#  0  0  0  0  0  0  0  0  0  0  0  0
    3.6047    0.0000    0.0000 R#  0  0  0  0  0  0  0  0  0  0  0  0
    7.9504    4.5903    0.0000 R#  0  0  0  0  0  0  0  0  0  0  0  0
    6.8668    1.4591    0.0000 S   0  0  0  0  0  0  0  0  0  0  0  0
    8.3898    1.4591    0.0000 C   0  0  0  0  0  0  0  0  0  0  0  0
  1  2  1  0
  2  3  1  0
  3  4  1  0
  4  5  1  0
  5  1  1  0
  1  6  1  1
  2  7  1  6
  6  8  1  0
  8  9  1  0
  7 10  1  0
  4 11  1  1
  3 12  1  6
 12 13  1  0
A    9
R1
A   10
R2
A   11
R3
M  END
>  <symbol>  (816)
ms2r

>  <m_abbr>  (816)
ms2r

>  <m_type>  (816)
rna

>  <m_subtype>  (816)
natural

>  <m_RgroupIdx>  (816)
8,9,10

>  <m_Rgroups>  (816)
H,H,OH

$$$$

     RDKit          2D

 33 34  0  0  0  0  0  0  0  0999 V2000
    3.9168   14.6202    0.0000 C   0  0  0  0  0  0  0  0  0  0  0  0
    4.2872   13.1429    0.0000 C   0  0  0  0  0  0  0  0  0  0  0  0
    5.8255   13.1296    0.0000 C   0  0  0  0  0  0  0  0  0  0  0  0
    6.3754   14.5755    0.0000 C   0  0  0  0  0  0  0  0  0  0  0  0
    5.2104   15.5575    0.0000 O   0  0  0  0  0  0  0  0  0  0  0  0
    3.3407   11.9498    0.0000 O   0  0  0  0  0  0  0  0  0  0  0  0
    2.4856   15.1411    0.0000 C   0  0  0  0  0  0  0  0  0  0  0  0
    7.8525   14.9591    0.0000 R#  0  0  0  0  0  0  0  0  0  0  0  0
    1.3189   14.1621    0.0000 O   0  0  0  0  0  0  0  0  0  0  0  0
    0.0000   14.9236    0.0000 R#  0  0  0  0  0  0  0  0  0  0  0  0
    3.3407   10.4268    0.0000 R#  0  0  0  0  0  0  0  0  0  0  0  0
    6.6397   11.8431    0.0000 O   0  0  0  0  0  0  0  0  0  0  0  0
   10.4472   10.5242    0.0000 C   0  0  0  0  0  0  0  0  0  0  0  0
    8.9242   10.5242    0.0000 C   0  0  0  0  0  0  0  0  0  0  0  0
    8.1627   11.8431    0.0000 C   0  0  0  0  0  0  0  0  0  0  0  0
   11.2087    9.2052    0.0000 C   0  0  0  0  0  0  0  0  0  0  0  0
   12.7317    9.2052    0.0000 C   0  0  0  0  0  0  0  0  0  0  0  0
   13.4932    7.8863    0.0000 C   0  0  0  0  0  0  0  0  0  0  0  0
   21.8459    1.3144    0.0000 C   0  0  0  0  0  0  0  0  0  0  0  0
   22.6048    0.0000    0.0000 C   0  0  0  0  0  0  0  0  0  0  0  0
   22.6048    2.6288    0.0000 C   0  0  0  0  0  0  0  0  0  0  0  0
   20.3282    1.3144    0.0000 C   0  0  0  0  0  0  0  0  0  0  0  0
   19.5693    2.6288    0.0000 C   0  0  0  0  0  0  0  0  0  0  0  0
   20.3282    3.9431    0.0000 C   0  0  0  0  0  0  0  0  0  0  0  0
   19.5693    5.2575    0.0000 C   0  0  0  0  0  0  0  0  0  0  0  0
   18.0516    5.2575    0.0000 C   0  0  0  0  0  0  0  0  0  0  0  0
   17.2927    3.9431    0.0000 C   0  0  0  0  0  0  0  0  0  0  0  0
   18.0516    2.6288    0.0000 C   0  0  0  0  0  0  0  0  0  0  0  0
   17.2927    6.5719    0.0000 C   0  0  0  0  0  0  0  0  0  0  0  0
   18.0516    7.8863    0.0000 C   0  0  0  0  0  0  0  0  0  0  0  0
   15.7750    6.5719    0.0000 C   0  0  0  0  0  0  0  0  0  0  0  0
   15.0162    5.2575    0.0000 O   0  0  0  0  0  0  0  0  0  0  0  0
   15.0162    7.8863    0.0000 N   0  0  0  0  0  0  0  0  0  0  0  0
  1  2  1  0
  2  3  1  0
  3  4  1  0
  4  5  1  0
  5  1  1  0
  2  6  1  6
  3 12  1  6
  1  7  1  1
  4  8  1  1
  7  9  1  0
  9 10  1  0
  6 11  1  0
 14 15  1  0
 13 14  1  0
 12 15  1  0
 13 16  1  0
 16 17  1  0
 17 18  1  0
 18 33  1  0
 19 20  1  0
 19 21  1  0
 19 22  1  0
 22 23  1  0
 23 24  2  0
 24 25  1  0
 25 26  2  0
 26 27  1  0
 27 28  2  0
 23 28  1  0
 26 29  1  0
 29 30  1  0
 29 31  1  0
 31 32  2  0
 31 33  1  0
A    8
R3
A   10
R1
A   11
R2
M  END
>  <symbol>  (817)
ibuprofnC62r

>  <m_abbr>  (817)
ibuprofnC62r

>  <m_type>  (817)
rna

>  <m_subtype>  (817)
natural

>  <m_RgroupIdx>  (817)
9,10,7

>  <m_Rgroups>  (817)
H,H,OH

$$$$

     RDKit          2D

 18 18  0  0  0  0  0  0  0  0999 V2000
    4.0293    7.7575    0.0000 C   0  0  0  0  0  0  0  0  0  0  0  0
    4.4331    6.3048    0.0000 C   0  0  0  0  0  0  0  0  0  0  0  0
    5.9559    6.3303    0.0000 C   0  0  0  0  0  0  0  0  0  0  0  0
    6.4655    7.7801    0.0000 C   0  0  0  0  0  0  0  0  0  0  0  0
    5.2860    8.7176    0.0000 O   0  0  0  0  0  0  0  0  0  0  0  0
    3.5218    5.0845    0.0000 O   0  0  0  0  0  0  0  0  0  0  0  0
    2.5854    8.2418    0.0000 C   0  0  0  0  0  0  0  0  0  0  0  0
    7.9289    8.2019    0.0000 R#  0  0  0  0  0  0  0  0  0  0  0  0
    1.4440    7.2335    0.0000 O   0  0  0  0  0  0  0  0  0  0  0  0
    0.0000    7.7179    0.0000 R#  0  0  0  0  0  0  0  0  0  0  0  0
    6.8467    5.0950    0.0000 O   0  0  0  0  0  0  0  0  0  0  0  0
    3.5218    3.5562    0.0000 R#  0  0  0  0  0  0  0  0  0  0  0  0
    6.2223    3.7059    0.0000 C   0  0  0  0  0  0  0  0  0  0  0  0
    7.1132    2.4706    0.0000 C   0  0  0  0  0  0  0  0  0  0  0  0
    8.6284    2.6244    0.0000 C   0  0  0  0  0  0  0  0  0  0  0  0
    9.5192    1.3891    0.0000 N   0  0  0  0  0  0  0  0  0  0  0  0
   11.0344    1.5430    0.0000 C   0  0  0  0  0  0  0  0  0  0  0  0
    8.8948    0.0000    0.0000 C   0  0  0  0  0  0  0  0  0  0  0  0
  1  2  1  0
  2  3  1  0
  3  4  1  0
  4  5  1  0
  5  1  1  0
  2  6  1  6
  3 11  1  6
  1  7  1  1
  4  8  1  1
  7  9  1  0
  9 10  1  0
  6 12  1  0
 11 13  1  0
 13 14  1  0
 14 15  1  0
 15 16  1  0
 16 18  1  0
 16 17  1  0
A    8
R3
A   10
R1
A   12
R2
M  END
>  <symbol>  (818)
m2npr2r

>  <m_abbr>  (818)
m2npr2r

>  <m_type>  (818)
rna

>  <m_subtype>  (818)
natural

>  <m_RgroupIdx>  (818)
9,11,7

>  <m_Rgroups>  (818)
H,H,OH

$$$$

     RDKit          2D

 14 14  0  0  0  0  0  0  0  0999 V2000
    4.0293    4.9550    0.0000 C   0  0  0  0  0  0  0  0  0  0  0  0
    4.4331    3.5023    0.0000 C   0  0  0  0  0  0  0  0  0  0  0  0
    5.9559    3.5278    0.0000 C   0  0  0  0  0  0  0  0  0  0  0  0
    6.4654    4.9776    0.0000 C   0  0  0  0  0  0  0  0  0  0  0  0
    5.2860    5.9151    0.0000 O   0  0  0  0  0  0  0  0  0  0  0  0
    3.5217    2.2820    0.0000 O   0  0  0  0  0  0  0  0  0  0  0  0
    2.5854    5.4393    0.0000 C   0  0  0  0  0  0  0  0  0  0  0  0
    7.9289    5.3994    0.0000 R#  0  0  0  0  0  0  0  0  0  0  0  0
    1.4440    4.4310    0.0000 O   0  0  0  0  0  0  0  0  0  0  0  0
    0.0000    4.9153    0.0000 R#  0  0  0  0  0  0  0  0  0  0  0  0
    6.8467    2.2925    0.0000 O   0  0  0  0  0  0  0  0  0  0  0  0
    3.5217    0.7537    0.0000 R#  0  0  0  0  0  0  0  0  0  0  0  0
    6.8467    0.7642    0.0000 C   0  0  0  0  0  0  0  0  0  0  0  0
    8.1702    0.0000    0.0000 C   0  0  0  0  0  0  0  0  0  0  0  0
  1  2  1  0
  2  3  1  0
  3  4  1  0
  4  5  1  0
  5  1  1  0
  2  6  1  6
  3 11  1  6
  1  7  1  1
  4  8  1  1
  7  9  1  0
  9 10  1  0
  6 12  1  0
 11 13  1  0
 13 14  1  0
A    8
R3
A   10
R1
A   12
R2
M  END
>  <symbol>  (819)
e2r

>  <m_abbr>  (819)
e2r

>  <m_type>  (819)
rna

>  <m_subtype>  (819)
natural

>  <m_RgroupIdx>  (819)
9,11,7

>  <m_Rgroups>  (819)
H,H,OH

$$$$

     RDKit          2D

 21 21  0  0  0  0  0  0  0  0999 V2000
    3.9168    8.0529    0.0000 C   0  0  0  0  0  0  0  0  0  0  0  0
    4.2872    6.5757    0.0000 C   0  0  0  0  0  0  0  0  0  0  0  0
    5.8255    6.5623    0.0000 C   0  0  0  0  0  0  0  0  0  0  0  0
    6.3773    8.0133    0.0000 C   0  0  0  0  0  0  0  0  0  0  0  0
    5.2104    8.9902    0.0000 O   0  0  0  0  0  0  0  0  0  0  0  0
    3.3407    5.3825    0.0000 O   0  0  0  0  0  0  0  0  0  0  0  0
    2.4856    8.5738    0.0000 C   0  0  0  0  0  0  0  0  0  0  0  0
    7.8525    8.3918    0.0000 R#  0  0  0  0  0  0  0  0  0  0  0  0
    1.3189    7.5949    0.0000 O   0  0  0  0  0  0  0  0  0  0  0  0
    0.0000    8.3564    0.0000 R#  0  0  0  0  0  0  0  0  0  0  0  0
    3.3407    3.8595    0.0000 R#  0  0  0  0  0  0  0  0  0  0  0  0
    6.6397    5.2759    0.0000 O   0  0  0  0  0  0  0  0  0  0  0  0
   10.4472    3.9569    0.0000 C   0  0  0  0  0  0  0  0  0  0  0  0
    8.9242    3.9569    0.0000 C   0  0  0  0  0  0  0  0  0  0  0  0
    8.1627    5.2759    0.0000 C   0  0  0  0  0  0  0  0  0  0  0  0
   11.2087    2.6380    0.0000 C   0  0  0  0  0  0  0  0  0  0  0  0
   12.7317    2.6380    0.0000 C   0  0  0  0  0  0  0  0  0  0  0  0
   13.4932    1.3190    0.0000 C   0  0  0  0  0  0  0  0  0  0  0  0
   15.0162    1.3190    0.0000 C   0  0  0  0  0  0  0  0  0  0  0  0
   15.7777    0.0000    0.0000 C   0  0  0  0  0  0  0  0  0  0  0  0
   17.3007    0.0000    0.0000 C   0  0  0  0  0  0  0  0  0  0  0  0
  1  2  1  0
  2  3  1  0
  3  4  1  0
  4  5  1  0
  5  1  1  0
  2  6  1  6
  3 12  1  6
  1  7  1  1
  4  8  1  1
  7  9  1  0
  9 10  1  0
  6 11  1  0
 14 15  1  0
 13 14  1  0
 12 15  1  0
 13 16  1  0
 16 17  1  0
 17 18  1  0
 18 19  1  0
 19 20  1  0
 20 21  1  0
A    8
R3
A   10
R1
A   11
R2
M  END
>  <symbol>  (820)
C92r

>  <m_abbr>  (820)
C92r

>  <m_type>  (820)
rna

>  <m_subtype>  (820)
natural

>  <m_RgroupIdx>  (820)
9,10,7

>  <m_Rgroups>  (820)
H,H,OH

$$$$

     RDKit          2D

 18 18  0  0  0  0  0  0  0  0999 V2000
    4.0294    7.3041    0.0000 C   0  0  0  0  0  0  0  0  0  0  0  0
    4.4724    5.8470    0.0000 C   0  0  0  0  0  0  0  0  0  0  0  0
    5.9951    5.8180    0.0000 C   0  0  0  0  0  0  0  0  0  0  0  0
    6.4898    7.2472    0.0000 C   0  0  0  0  0  0  0  0  0  0  0  0
    5.2784    8.1757    0.0000 O   0  0  0  0  0  0  0  0  0  0  0  0
    2.5902    7.8022    0.0000 C   0  0  0  0  0  0  0  0  0  0  0  0
    3.5539    4.6321    0.0000 O   0  0  0  0  0  0  0  0  0  0  0  0
    1.4392    6.8049    0.0000 O   0  0  0  0  0  0  0  0  0  0  0  0
    0.0000    7.3030    0.0000 R#  0  0  0  0  0  0  0  0  0  0  0  0
    3.6047    3.1099    0.0000 R#  0  0  0  0  0  0  0  0  0  0  0  0
    6.8667    4.5690    0.0000 O   0  0  0  0  0  0  0  0  0  0  0  0
    7.9504    7.7002    0.0000 R#  0  0  0  0  0  0  0  0  0  0  0  0
    6.8667    3.0460    0.0000 C   0  0  0  0  0  0  0  0  0  0  0  0
    8.1857    2.2845    0.0000 C   0  0  0  0  0  0  0  0  0  0  0  0
    8.1857    0.7615    0.0000 N   0  0  0  0  0  0  0  0  0  0  0  0
    9.5046    0.0000    0.0000 C   0  0  0  0  0  0  0  0  0  0  0  0
    9.5046    3.0460    0.0000 O   0  0  0  0  0  0  0  0  0  0  0  0
    6.8667    0.0000    0.0000 C   0  0  0  0  0  0  0  0  0  0  0  0
  1  2  1  0
  2  3  1  0
  3  4  1  0
  4  5  1  0
  5  1  1  0
  1  6  1  1
  2  7  1  6
  6  8  1  0
  8  9  1  0
  7 10  1  0
  3 11  1  6
  4 12  1  1
 11 13  1  0
 13 14  1  0
 14 15  1  0
 15 16  1  0
 14 17  2  0
 15 18  1  0
A    9
R1
A   10
R2
A   12
R3
M  END
>  <symbol>  (821)
dmac

>  <m_abbr>  (821)
dmac

>  <m_type>  (821)
rna

>  <m_subtype>  (821)
natural

>  <m_RgroupIdx>  (821)
8,9,11

>  <m_Rgroups>  (821)
H,H,OH

$$$$

     RDKit          2D

 18 18  0  0  0  0  0  0  0  0999 V2000
    4.4547    7.5365    0.0000 O   0  0  0  0  0  0  0  0  0  0  0  0
    3.2279    6.6340    0.0000 C   0  0  0  0  0  0  0  0  0  0  0  0
    5.6921    6.6486    0.0000 C   0  0  0  0  0  0  0  0  0  0  0  0
    3.7071    5.1883    0.0000 C   0  0  0  0  0  0  0  0  0  0  0  0
    5.2301    5.1974    0.0000 C   0  0  0  0  0  0  0  0  0  0  0  0
    2.8192    3.9509    0.0000 O   0  0  0  0  0  0  0  0  0  0  0  0
    1.7767    7.0960    0.0000 C   0  0  0  0  0  0  0  0  0  0  0  0
    1.4512    8.5838    0.0000 O   0  0  0  0  0  0  0  0  0  0  0  0
    0.0000    9.0458    0.0000 R#  0  0  0  0  0  0  0  0  0  0  0  0
    7.1377    7.1278    0.0000 R#  0  0  0  0  0  0  0  0  0  0  0  0
    6.1326    3.9706    0.0000 O   0  0  0  0  0  0  0  0  0  0  0  0
    2.8192    2.4226    0.0000 R#  0  0  0  0  0  0  0  0  0  0  0  0
    7.6608    3.9706    0.0000 C   0  0  0  0  0  0  0  0  0  0  0  0
    8.4250    2.6471    0.0000 C   0  0  0  0  0  0  0  0  0  0  0  0
    9.9533    2.6471    0.0000 C   0  0  0  0  0  0  0  0  0  0  0  0
   10.7174    1.3235    0.0000 C   0  0  0  0  0  0  0  0  0  0  0  0
   12.2457    1.3235    0.0000 C   0  0  0  0  0  0  0  0  0  0  0  0
   13.0099    0.0000    0.0000 N   0  0  0  0  0  0  0  0  0  0  0  0
  1  2  1  0
  1  3  1  0
  2  4  1  0
  2  7  1  1
  3  5  1  0
  4  5  1  0
  4  6  1  6
  7  8  1  0
  8  9  1  0
  3 10  1  1
  5 11  1  6
  6 12  1  0
 11 13  1  0
 13 14  1  0
 14 15  1  0
 15 16  1  0
 16 17  1  0
 17 18  1  0
A    9
R1
A   10
R3
A   12
R2
M  END
>  <symbol>  (822)
nC52r

>  <m_abbr>  (822)
nC52r

>  <m_type>  (822)
rna

>  <m_subtype>  (822)
natural

>  <m_RgroupIdx>  (822)
8,11,9

>  <m_Rgroups>  (822)
H,H,OH

$$$$

     RDKit          2D

 19 20  0  0  0  0  0  0  0  0999 V2000
    3.9168    6.7339    0.0000 C   0  0  0  0  0  0  0  0  0  0  0  0
    4.2872    5.2566    0.0000 C   0  0  0  0  0  0  0  0  0  0  0  0
    5.8255    5.2433    0.0000 C   0  0  0  0  0  0  0  0  0  0  0  0
    6.3773    6.6942    0.0000 C   0  0  0  0  0  0  0  0  0  0  0  0
    5.2104    7.6712    0.0000 O   0  0  0  0  0  0  0  0  0  0  0  0
    3.3407    4.0635    0.0000 O   0  0  0  0  0  0  0  0  0  0  0  0
    2.4856    7.2548    0.0000 C   0  0  0  0  0  0  0  0  0  0  0  0
    7.8525    7.0728    0.0000 R#  0  0  0  0  0  0  0  0  0  0  0  0
    1.3189    6.2758    0.0000 O   0  0  0  0  0  0  0  0  0  0  0  0
    0.0000    7.0373    0.0000 R#  0  0  0  0  0  0  0  0  0  0  0  0
    3.3407    2.5405    0.0000 R#  0  0  0  0  0  0  0  0  0  0  0  0
    6.6397    3.9568    0.0000 O   0  0  0  0  0  0  0  0  0  0  0  0
    8.9242    2.6379    0.0000 C   0  0  0  0  0  0  0  0  0  0  0  0
    8.1627    3.9568    0.0000 C   0  0  0  0  0  0  0  0  0  0  0  0
    8.1627    1.3189    0.0000 C   0  0  0  0  0  0  0  0  0  0  0  0
    8.9242    0.0000    0.0000 C   0  0  0  0  0  0  0  0  0  0  0  0
   10.4472    0.0000    0.0000 C   0  0  0  0  0  0  0  0  0  0  0  0
   11.2087    1.3189    0.0000 C   0  0  0  0  0  0  0  0  0  0  0  0
   10.4472    2.6379    0.0000 C   0  0  0  0  0  0  0  0  0  0  0  0
  1  2  1  0
  2  3  1  0
  3  4  1  0
  4  5  1  0
  5  1  1  0
  2  6  1  6
  3 12  1  6
  1  7  1  1
  4  8  1  1
  7  9  1  0
  9 10  1  0
  6 11  1  0
 13 14  1  0
 12 14  1  0
 13 15  2  0
 15 16  1  0
 16 17  2  0
 17 18  1  0
 18 19  2  0
 19 13  1  0
A    8
R3
A   10
R1
A   11
R2
M  END
>  <symbol>  (823)
bn2r

>  <m_abbr>  (823)
bn2r

>  <m_type>  (823)
rna

>  <m_subtype>  (823)
natural

>  <m_RgroupIdx>  (823)
9,10,7

>  <m_Rgroups>  (823)
H,H,OH

$$$$

     RDKit          2D

 20 20  0  0  0  0  0  0  0  0999 V2000
    3.9168    8.0438    0.0000 C   0  0  0  0  0  0  0  0  0  0  0  0
    4.2872    6.5665    0.0000 C   0  0  0  0  0  0  0  0  0  0  0  0
    5.8256    6.5531    0.0000 C   0  0  0  0  0  0  0  0  0  0  0  0
    6.3735    7.9940    0.0000 C   0  0  0  0  0  0  0  0  0  0  0  0
    5.2104    8.9810    0.0000 O   0  0  0  0  0  0  0  0  0  0  0  0
    3.3407    5.3733    0.0000 O   0  0  0  0  0  0  0  0  0  0  0  0
    2.4856    8.5647    0.0000 C   0  0  0  0  0  0  0  0  0  0  0  0
    7.8526    8.3827    0.0000 R#  0  0  0  0  0  0  0  0  0  0  0  0
    1.3189    7.5857    0.0000 O   0  0  0  0  0  0  0  0  0  0  0  0
    0.0000    8.3472    0.0000 R#  0  0  0  0  0  0  0  0  0  0  0  0
    3.3407    3.8503    0.0000 R#  0  0  0  0  0  0  0  0  0  0  0  0
    6.6397    5.2667    0.0000 O   0  0  0  0  0  0  0  0  0  0  0  0
    8.9242    3.9478    0.0000 C   0  0  0  0  0  0  0  0  0  0  0  0
    8.1627    5.2667    0.0000 C   0  0  0  0  0  0  0  0  0  0  0  0
   10.4472    3.9478    0.0000 O   0  0  0  0  0  0  0  0  0  0  0  0
   11.2061    2.6334    0.0000 C   0  0  0  0  0  0  0  0  0  0  0  0
   12.7291    2.6334    0.0000 C   0  0  0  0  0  0  0  0  0  0  0  0
   13.4906    1.3144    0.0000 N   0  0  0  0  0  0  0  0  0  0  0  0
   15.0083    1.3144    0.0000 C   0  0  0  0  0  0  0  0  0  0  0  0
   12.7317    0.0000    0.0000 C   0  0  0  0  0  0  0  0  0  0  0  0
  1  2  1  0
  2  3  1  0
  3  4  1  0
  4  5  1  0
  5  1  1  0
  2  6  1  6
  3 12  1  6
  1  7  1  1
  4  8  1  1
  7  9  1  0
  9 10  1  0
  6 11  1  0
 13 14  1  0
 15 13  1  0
 12 14  1  0
 15 16  1  0
 16 17  1  0
 17 18  1  0
 18 20  1  0
 18 19  1  0
A    8
R3
A   10
R1
A   11
R2
M  END
>  <symbol>  (824)
dmaeoe

>  <m_abbr>  (824)
dmaeoe

>  <m_type>  (824)
rna

>  <m_subtype>  (824)
natural

>  <m_RgroupIdx>  (824)
9,10,7

>  <m_Rgroups>  (824)
H,H,OH

$$$$

     RDKit          2D

 11 11  0  0  0  0  0  0  0  0999 V2000
    4.4547    5.1139    0.0000 O   0  0  0  0  0  0  0  0  0  0  0  0
    3.2280    4.2114    0.0000 C   0  0  0  0  0  0  0  0  0  0  0  0
    5.6922    4.2261    0.0000 C   0  0  0  0  0  0  0  0  0  0  0  0
    3.7071    2.7658    0.0000 C   0  0  0  0  0  0  0  0  0  0  0  0
    5.2301    2.7748    0.0000 C   0  0  0  0  0  0  0  0  0  0  0  0
    2.8193    1.5283    0.0000 O   0  0  0  0  0  0  0  0  0  0  0  0
    1.7767    4.6734    0.0000 C   0  0  0  0  0  0  0  0  0  0  0  0
    1.4512    6.1612    0.0000 O   0  0  0  0  0  0  0  0  0  0  0  0
    0.0000    6.6233    0.0000 R#  0  0  0  0  0  0  0  0  0  0  0  0
    7.1378    4.7053    0.0000 R#  0  0  0  0  0  0  0  0  0  0  0  0
    2.8193    0.0000    0.0000 R#  0  0  0  0  0  0  0  0  0  0  0  0
  1  2  1  0
  1  3  1  0
  2  4  1  0
  2  7  1  6
  3  5  1  0
  4  5  1  0
  4  6  1  1
  7  8  1  0
  8  9  1  0
  3 10  1  6
  6 11  1  0
A    9
R1
A   10
R3
A   11
R2
M  END
>  <symbol>  (825)
Ld

>  <m_abbr>  (825)
Ld

>  <m_type>  (825)
rna

>  <m_subtype>  (825)
natural

>  <m_RgroupIdx>  (825)
8,10,9

>  <m_Rgroups>  (825)
H,H,OH

$$$$

     RDKit          2D

 50 53  0  0  0  0  0  0  0  0999 V2000
    3.9168   26.4457    0.0000 C   0  0  0  0  0  0  0  0  0  0  0  0
    4.2872   24.9684    0.0000 C   0  0  0  0  0  0  0  0  0  0  0  0
    5.8256   24.9551    0.0000 C   0  0  0  0  0  0  0  0  0  0  0  0
    6.3735   26.3960    0.0000 C   0  0  0  0  0  0  0  0  0  0  0  0
    5.2105   27.3830    0.0000 O   0  0  0  0  0  0  0  0  0  0  0  0
    3.3407   23.7753    0.0000 O   0  0  0  0  0  0  0  0  0  0  0  0
    2.4857   26.9666    0.0000 C   0  0  0  0  0  0  0  0  0  0  0  0
    7.8526   26.7846    0.0000 R#  0  0  0  0  0  0  0  0  0  0  0  0
    1.3190   25.9876    0.0000 O   0  0  0  0  0  0  0  0  0  0  0  0
    0.0000   26.7491    0.0000 R#  0  0  0  0  0  0  0  0  0  0  0  0
    3.3407   22.2523    0.0000 R#  0  0  0  0  0  0  0  0  0  0  0  0
    6.6397   23.6686    0.0000 O   0  0  0  0  0  0  0  0  0  0  0  0
   10.4472   22.3497    0.0000 C   0  0  0  0  0  0  0  0  0  0  0  0
    8.9242   22.3497    0.0000 C   0  0  0  0  0  0  0  0  0  0  0  0
    8.1627   23.6686    0.0000 C   0  0  0  0  0  0  0  0  0  0  0  0
   11.2087   21.0307    0.0000 C   0  0  0  0  0  0  0  0  0  0  0  0
   12.7317   21.0307    0.0000 C   0  0  0  0  0  0  0  0  0  0  0  0
   13.4932   19.7118    0.0000 C   0  0  0  0  0  0  0  0  0  0  0  0
   18.0516   17.0830    0.0000 C   0  0  0  0  0  0  0  0  0  0  0  0
   17.2928   18.3974    0.0000 C   0  0  0  0  0  0  0  0  0  0  0  0
   15.7751   18.3974    0.0000 C   0  0  0  0  0  0  0  0  0  0  0  0
   15.0162   17.0830    0.0000 O   0  0  0  0  0  0  0  0  0  0  0  0
   15.0162   19.7118    0.0000 N   0  0  0  0  0  0  0  0  0  0  0  0
   19.5746   17.0830    0.0000 C   0  0  0  0  0  0  0  0  0  0  0  0
   20.3335   18.3974    0.0000 C   0  0  0  0  0  0  0  0  0  0  0  0
   19.5746   19.7118    0.0000 O   0  0  0  0  0  0  0  0  0  0  0  0
   21.8512   18.3974    0.0000 O   0  0  0  0  0  0  0  0  0  0  0  0
   20.3335   15.7687    0.0000 N   0  0  0  0  0  0  0  0  0  0  0  0
   19.5746   14.4543    0.0000 C   0  0  0  0  0  0  0  0  0  0  0  0
   18.0569   14.4543    0.0000 O   0  0  0  0  0  0  0  0  0  0  0  0
   20.3335   13.1399    0.0000 C   0  0  0  0  0  0  0  0  0  0  0  0
   19.5720   11.8220    0.0000 C   0  0  0  0  0  0  0  0  0  0  0  0
   20.3344   10.5097    0.0000 C   0  0  0  0  0  0  0  0  0  0  0  0
   21.8480   10.5102    0.0000 C   0  0  0  0  0  0  0  0  0  0  0  0
   22.6041   11.8231    0.0000 C   0  0  0  0  0  0  0  0  0  0  0  0
   21.8471   13.1404    0.0000 C   0  0  0  0  0  0  0  0  0  0  0  0
   22.6068    9.1959    0.0000 N   0  0  0  0  0  0  0  0  0  0  0  0
   21.8480    7.8815    0.0000 C   0  0  0  0  0  0  0  0  0  0  0  0
   22.6068    6.5671    0.0000 C   0  0  0  0  0  0  0  0  0  0  0  0
   21.8432    5.2453    0.0000 N   0  0  0  0  0  0  0  0  0  0  0  0
   22.6076    3.9298    0.0000 C   0  0  0  0  0  0  0  0  0  0  0  0
   24.1253    3.9302    0.0000 C   0  0  0  0  0  0  0  0  0  0  0  0
   24.8836    5.2462    0.0000 N   0  0  0  0  0  0  0  0  0  0  0  0
   24.1246    6.5675    0.0000 C   0  0  0  0  0  0  0  0  0  0  0  0
   21.8490    2.6188    0.0000 C   0  0  0  0  0  0  0  0  0  0  0  0
   22.6083    1.3139    0.0000 N   0  0  0  0  0  0  0  0  0  0  0  0
   24.1261    1.3143    0.0000 C   0  0  0  0  0  0  0  0  0  0  0  0
   24.8788    2.6196    0.0000 N   0  0  0  0  0  0  0  0  0  0  0  0
   24.8849    0.0000    0.0000 N   0  0  0  0  0  0  0  0  0  0  0  0
   20.3313    2.6188    0.0000 O   0  0  0  0  0  0  0  0  0  0  0  0
  1  2  1  0
  2  3  1  0
  3  4  1  0
  4  5  1  0
  5  1  1  0
  2  6  1  6
  3 12  1  6
  1  7  1  1
  4  8  1  1
  7  9  1  0
  9 10  1  0
  6 11  1  0
 14 15  1  0
 13 14  1  0
 12 15  1  0
 13 16  1  0
 16 17  1  0
 17 18  1  0
 18 23  1  0
 19 20  1  0
 20 21  1  0
 21 22  2  0
 21 23  1  0
 24 19  1  1
 24 28  1  0
 24 25  1  0
 25 26  2  0
 25 27  1  0
 28 29  1  0
 29 30  2  0
 29 31  1  0
 31 32  2  0
 32 33  1  0
 33 34  2  0
 34 35  1  0
 35 36  2  0
 31 36  1  0
 34 37  1  0
 37 38  1  0
 38 39  1  0
 39 40  2  0
 40 41  1  0
 41 42  2  0
 42 43  1  0
 43 44  2  0
 39 44  1  0
 41 45  1  0
 45 46  1  0
 46 47  1  0
 47 48  2  0
 42 48  1  0
 47 49  1  0
 45 50  2  0
A    8
R3
A   10
R1
A   11
R2
M  END
>  <symbol>  (826)
folicgnC62r

>  <m_abbr>  (826)
folicgnC62r

>  <m_type>  (826)
rna

>  <m_subtype>  (826)
natural

>  <m_RgroupIdx>  (826)
9,10,7

>  <m_Rgroups>  (826)
H,H,OH

$$$$

     RDKit          2D

 16 16  0  0  0  0  0  0  0  0999 V2000
    4.0293    7.2473    0.0000 C   0  0  0  0  0  0  0  0  0  0  0  0
    4.4330    5.7947    0.0000 C   0  0  0  0  0  0  0  0  0  0  0  0
    5.9558    5.8202    0.0000 C   0  0  0  0  0  0  0  0  0  0  0  0
    6.4654    7.2700    0.0000 C   0  0  0  0  0  0  0  0  0  0  0  0
    5.2860    8.2075    0.0000 O   0  0  0  0  0  0  0  0  0  0  0  0
    3.5217    4.5744    0.0000 O   0  0  0  0  0  0  0  0  0  0  0  0
    2.5853    7.7317    0.0000 C   0  0  0  0  0  0  0  0  0  0  0  0
    7.9288    7.6918    0.0000 R#  0  0  0  0  0  0  0  0  0  0  0  0
    1.4439    6.7234    0.0000 O   0  0  0  0  0  0  0  0  0  0  0  0
    0.0000    7.2077    0.0000 R#  0  0  0  0  0  0  0  0  0  0  0  0
    6.8466    4.5849    0.0000 O   0  0  0  0  0  0  0  0  0  0  0  0
    3.5217    3.0461    0.0000 R#  0  0  0  0  0  0  0  0  0  0  0  0
    6.8466    3.0566    0.0000 C   0  0  0  0  0  0  0  0  0  0  0  0
    8.1702    2.2924    0.0000 C   0  0  0  0  0  0  0  0  0  0  0  0
    8.1702    0.7641    0.0000 S   0  0  0  0  0  0  0  0  0  0  0  0
    9.4938    0.0000    0.0000 C   0  0  0  0  0  0  0  0  0  0  0  0
  1  2  1  0
  2  3  1  0
  3  4  1  0
  4  5  1  0
  5  1  1  0
  2  6  1  6
  3 11  1  6
  1  7  1  1
  4  8  1  1
  7  9  1  0
  9 10  1  0
  6 12  1  0
 11 13  1  0
 13 14  1  0
 14 15  1  0
 15 16  1  0
A    8
R3
A   10
R1
A   12
R2
M  END
>  <symbol>  (827)
mse2r

>  <m_abbr>  (827)
mse2r

>  <m_type>  (827)
rna

>  <m_subtype>  (827)
natural

>  <m_RgroupIdx>  (827)
9,11,7

>  <m_Rgroups>  (827)
H,H,OH

$$$$

     RDKit          2D

 21 21  0  0  0  0  0  0  0  0999 V2000
    4.0294   11.1036    0.0000 C   0  0  0  0  0  0  0  0  0  0  0  0
    4.4724    9.6465    0.0000 C   0  0  0  0  0  0  0  0  0  0  0  0
    5.9951    9.6175    0.0000 C   0  0  0  0  0  0  0  0  0  0  0  0
    6.4898   11.0468    0.0000 C   0  0  0  0  0  0  0  0  0  0  0  0
    5.2784   11.9752    0.0000 O   0  0  0  0  0  0  0  0  0  0  0  0
    2.5902   11.6017    0.0000 C   0  0  0  0  0  0  0  0  0  0  0  0
    3.5539    8.4316    0.0000 O   0  0  0  0  0  0  0  0  0  0  0  0
    1.4392   10.6044    0.0000 O   0  0  0  0  0  0  0  0  0  0  0  0
    0.0000   11.1025    0.0000 R#  0  0  0  0  0  0  0  0  0  0  0  0
    3.6047    6.9094    0.0000 R#  0  0  0  0  0  0  0  0  0  0  0  0
    6.8667    8.3685    0.0000 O   0  0  0  0  0  0  0  0  0  0  0  0
    7.9504   11.4997    0.0000 R#  0  0  0  0  0  0  0  0  0  0  0  0
    6.8667    6.8455    0.0000 C   0  0  0  0  0  0  0  0  0  0  0  0
    8.1857    6.0840    0.0000 C   0  0  0  0  0  0  0  0  0  0  0  0
    8.1857    4.5610    0.0000 N   0  0  0  0  0  0  0  0  0  0  0  0
    9.5046    3.7995    0.0000 C   0  0  0  0  0  0  0  0  0  0  0  0
    9.5046    6.8455    0.0000 O   0  0  0  0  0  0  0  0  0  0  0  0
    9.5046    2.2765    0.0000 C   0  0  0  0  0  0  0  0  0  0  0  0
   10.8190    1.5177    0.0000 N   0  0  0  0  0  0  0  0  0  0  0  0
   12.1334    2.2765    0.0000 C   0  0  0  0  0  0  0  0  0  0  0  0
   10.8190    0.0000    0.0000 C   0  0  0  0  0  0  0  0  0  0  0  0
  1  2  1  0
  2  3  1  0
  3  4  1  0
  4  5  1  0
  5  1  1  0
  1  6  1  1
  2  7  1  6
  6  8  1  0
  8  9  1  0
  7 10  1  0
  3 11  1  6
  4 12  1  1
 11 13  1  0
 13 14  1  0
 14 15  1  0
 15 16  1  0
 14 17  2  0
 16 18  1  0
 18 19  1  0
 19 21  1  0
 19 20  1  0
A    9
R1
A   10
R2
A   12
R3
M  END
>  <symbol>  (828)
dmaeac

>  <m_abbr>  (828)
dmaeac

>  <m_type>  (828)
rna

>  <m_subtype>  (828)
natural

>  <m_RgroupIdx>  (828)
8,9,11

>  <m_Rgroups>  (828)
H,H,OH

$$$$

     RDKit          2D

 20 20  0  0  0  0  0  0  0  0999 V2000
    3.9168    6.7339    0.0000 C   0  0  0  0  0  0  0  0  0  0  0  0
    4.2872    5.2566    0.0000 C   0  0  0  0  0  0  0  0  0  0  0  0
    5.8256    5.2433    0.0000 C   0  0  0  0  0  0  0  0  0  0  0  0
    6.3774    6.6942    0.0000 C   0  0  0  0  0  0  0  0  0  0  0  0
    5.2105    7.6711    0.0000 O   0  0  0  0  0  0  0  0  0  0  0  0
    3.3407    4.0634    0.0000 O   0  0  0  0  0  0  0  0  0  0  0  0
    2.4857    7.2548    0.0000 C   0  0  0  0  0  0  0  0  0  0  0  0
    7.8526    7.0728    0.0000 R#  0  0  0  0  0  0  0  0  0  0  0  0
    1.3190    6.2758    0.0000 O   0  0  0  0  0  0  0  0  0  0  0  0
    0.0000    7.0373    0.0000 R#  0  0  0  0  0  0  0  0  0  0  0  0
    3.3407    2.5405    0.0000 R#  0  0  0  0  0  0  0  0  0  0  0  0
    6.6397    3.9568    0.0000 O   0  0  0  0  0  0  0  0  0  0  0  0
   10.4472    2.6379    0.0000 N   0  0  0  0  0  0  0  0  0  0  0  0
    8.9242    2.6379    0.0000 C   0  0  0  0  0  0  0  0  0  0  0  0
    8.1627    3.9568    0.0000 C   0  0  0  0  0  0  0  0  0  0  0  0
   11.2087    1.3189    0.0000 C   0  0  0  0  0  0  0  0  0  0  0  0
    8.1627    1.3189    0.0000 O   0  0  0  0  0  0  0  0  0  0  0  0
   12.7317    1.3189    0.0000 C   0  0  0  0  0  0  0  0  0  0  0  0
   13.4932    0.0000    0.0000 S   0  0  0  0  0  0  0  0  0  0  0  0
   15.0162    0.0000    0.0000 C   0  0  0  0  0  0  0  0  0  0  0  0
  1  2  1  0
  2  3  1  0
  3  4  1  0
  4  5  1  0
  5  1  1  0
  2  6  1  6
  3 12  1  6
  1  7  1  1
  4  8  1  1
  7  9  1  0
  9 10  1  0
  6 11  1  0
 14 15  1  0
 13 14  1  0
 12 15  1  0
 13 16  1  0
 14 17  2  0
 16 18  1  0
 18 19  1  0
 19 20  1  0
A    8
R3
A   10
R1
A   11
R2
M  END
>  <symbol>  (829)
mseac

>  <m_abbr>  (829)
mseac

>  <m_type>  (829)
rna

>  <m_subtype>  (829)
natural

>  <m_RgroupIdx>  (829)
9,10,7

>  <m_Rgroups>  (829)
H,H,OH

$$$$

     RDKit          2D

 17 17  0  0  0  0  0  0  0  0999 V2000
    3.9168    5.4150    0.0000 C   0  0  0  0  0  0  0  0  0  0  0  0
    4.2872    3.9378    0.0000 C   0  0  0  0  0  0  0  0  0  0  0  0
    5.8256    3.9244    0.0000 C   0  0  0  0  0  0  0  0  0  0  0  0
    6.3774    5.3754    0.0000 C   0  0  0  0  0  0  0  0  0  0  0  0
    5.2105    6.3523    0.0000 O   0  0  0  0  0  0  0  0  0  0  0  0
    3.3407    2.7446    0.0000 O   0  0  0  0  0  0  0  0  0  0  0  0
    2.4857    5.9359    0.0000 C   0  0  0  0  0  0  0  0  0  0  0  0
    7.8526    5.7539    0.0000 R#  0  0  0  0  0  0  0  0  0  0  0  0
    1.3190    4.9569    0.0000 O   0  0  0  0  0  0  0  0  0  0  0  0
    0.0000    5.7184    0.0000 R#  0  0  0  0  0  0  0  0  0  0  0  0
    3.3407    1.2216    0.0000 R#  0  0  0  0  0  0  0  0  0  0  0  0
    6.6397    2.6379    0.0000 O   0  0  0  0  0  0  0  0  0  0  0  0
   10.4472    1.3190    0.0000 N   0  0  0  0  0  0  0  0  0  0  0  0
    8.9242    1.3190    0.0000 C   0  0  0  0  0  0  0  0  0  0  0  0
    8.1627    2.6379    0.0000 C   0  0  0  0  0  0  0  0  0  0  0  0
   11.2087    0.0000    0.0000 C   0  0  0  0  0  0  0  0  0  0  0  0
    8.1627    0.0000    0.0000 O   0  0  0  0  0  0  0  0  0  0  0  0
  1  2  1  0
  2  3  1  0
  3  4  1  0
  4  5  1  0
  5  1  1  0
  2  6  1  6
  3 12  1  6
  1  7  1  1
  4  8  1  1
  7  9  1  0
  9 10  1  0
  6 11  1  0
 14 15  1  0
 13 14  1  0
 12 15  1  0
 13 16  1  0
 14 17  2  0
A    8
R3
A   10
R1
A   11
R2
M  END
>  <symbol>  (830)
nma

>  <m_abbr>  (830)
nma

>  <m_type>  (830)
rna

>  <m_subtype>  (830)
natural

>  <m_RgroupIdx>  (830)
9,10,7

>  <m_Rgroups>  (830)
H,H,OH

$$$$

     RDKit          2D

 16 16  0  0  0  0  0  0  0  0999 V2000
    4.0293    6.4832    0.0000 C   0  0  0  0  0  0  0  0  0  0  0  0
    4.4331    5.0306    0.0000 C   0  0  0  0  0  0  0  0  0  0  0  0
    5.9559    5.0560    0.0000 C   0  0  0  0  0  0  0  0  0  0  0  0
    6.4654    6.5059    0.0000 C   0  0  0  0  0  0  0  0  0  0  0  0
    5.2860    7.4433    0.0000 O   0  0  0  0  0  0  0  0  0  0  0  0
    3.5218    3.8103    0.0000 O   0  0  0  0  0  0  0  0  0  0  0  0
    2.5854    6.9676    0.0000 C   0  0  0  0  0  0  0  0  0  0  0  0
    7.9289    6.9277    0.0000 R#  0  0  0  0  0  0  0  0  0  0  0  0
    1.4440    5.9593    0.0000 O   0  0  0  0  0  0  0  0  0  0  0  0
    0.0000    6.4436    0.0000 R#  0  0  0  0  0  0  0  0  0  0  0  0
    6.8467    3.8207    0.0000 O   0  0  0  0  0  0  0  0  0  0  0  0
    3.5218    2.2820    0.0000 R#  0  0  0  0  0  0  0  0  0  0  0  0
    6.8467    2.2925    0.0000 C   0  0  0  0  0  0  0  0  0  0  0  0
    8.1702    1.5283    0.0000 C   0  0  0  0  0  0  0  0  0  0  0  0
    8.1702    0.0000    0.0000 O   0  0  0  0  0  0  0  0  0  0  0  0
    9.4938    2.2925    0.0000 N   0  0  0  0  0  0  0  0  0  0  0  0
  1  2  1  0
  2  3  1  0
  3  4  1  0
  4  5  1  0
  5  1  1  0
  2  6  1  6
  3 11  1  6
  1  7  1  1
  4  8  1  1
  7  9  1  0
  9 10  1  0
  6 12  1  0
 11 13  1  0
 13 14  1  0
 14 15  2  0
 14 16  1  0
A    8
R3
A   10
R1
A   12
R2
M  END
>  <symbol>  (831)
nac2r

>  <m_abbr>  (831)
nac2r

>  <m_type>  (831)
rna

>  <m_subtype>  (831)
natural

>  <m_RgroupIdx>  (831)
9,11,7

>  <m_Rgroups>  (831)
H,H,OH

$$$$

     RDKit          2D

 14 14  0  0  0  0  0  0  0  0999 V2000
    2.5902    5.7811    0.0000 C   0  0  0  0  0  0  0  0  0  0  0  0
    3.0332    4.3239    0.0000 C   0  0  0  0  0  0  0  0  0  0  0  0
    4.5559    4.2949    0.0000 C   0  0  0  0  0  0  0  0  0  0  0  0
    5.0540    5.7342    0.0000 C   0  0  0  0  0  0  0  0  0  0  0  0
    3.8391    6.6527    0.0000 O   0  0  0  0  0  0  0  0  0  0  0  0
    1.1510    6.2792    0.0000 C   0  0  0  0  0  0  0  0  0  0  0  0
    2.1147    3.1090    0.0000 O   0  0  0  0  0  0  0  0  0  0  0  0
    2.1655    1.5869    0.0000 R#  0  0  0  0  0  0  0  0  0  0  0  0
    5.4275    3.0460    0.0000 O   0  0  0  0  0  0  0  0  0  0  0  0
    6.5112    6.1772    0.0000 R#  0  0  0  0  0  0  0  0  0  0  0  0
    5.4275    1.5230    0.0000 C   0  0  0  0  0  0  0  0  0  0  0  0
    6.7464    0.7615    0.0000 C   0  0  0  0  0  0  0  0  0  0  0  0
    0.0000    5.2818    0.0000 R#  0  0  0  0  0  0  0  0  0  0  0  0
    8.0654    0.0000    0.0000 C   0  0  0  0  0  0  0  0  0  0  0  0
  1  2  1  0
  2  3  1  0
  3  4  1  0
  4  5  1  0
  5  1  1  0
  1  6  1  1
  2  7  1  6
  7  8  1  0
  3  9  1  6
  4 10  1  1
  9 11  1  0
 11 12  1  0
  6 13  1  0
 12 14  3  0
A    8
R2
A   10
R3
A   13
R1
M  END
>  <symbol>  (832)
prpargyl2r

>  <m_abbr>  (832)
prpargyl2r

>  <m_type>  (832)
rna

>  <m_subtype>  (832)
natural

>  <m_RgroupIdx>  (832)
12,7,9

>  <m_Rgroups>  (832)
H,H,OH

$$$$

     RDKit          2D

 17 17  0  0  0  0  0  0  0  0999 V2000
    3.9168    5.4150    0.0000 C   0  0  0  0  0  0  0  0  0  0  0  0
    4.2872    3.9377    0.0000 C   0  0  0  0  0  0  0  0  0  0  0  0
    5.8255    3.9244    0.0000 C   0  0  0  0  0  0  0  0  0  0  0  0
    6.3773    5.3753    0.0000 C   0  0  0  0  0  0  0  0  0  0  0  0
    5.2104    6.3523    0.0000 O   0  0  0  0  0  0  0  0  0  0  0  0
    3.3407    2.7446    0.0000 O   0  0  0  0  0  0  0  0  0  0  0  0
    2.4856    5.9359    0.0000 C   0  0  0  0  0  0  0  0  0  0  0  0
    7.8525    5.7539    0.0000 R#  0  0  0  0  0  0  0  0  0  0  0  0
    1.3189    4.9569    0.0000 O   0  0  0  0  0  0  0  0  0  0  0  0
    0.0000    5.7184    0.0000 R#  0  0  0  0  0  0  0  0  0  0  0  0
    3.3407    1.2216    0.0000 R#  0  0  0  0  0  0  0  0  0  0  0  0
    6.6397    2.6379    0.0000 O   0  0  0  0  0  0  0  0  0  0  0  0
   10.4472    1.3190    0.0000 C   0  0  0  0  0  0  0  0  0  0  0  0
    8.9242    1.3190    0.0000 C   0  0  0  0  0  0  0  0  0  0  0  0
    8.1627    2.6379    0.0000 C   0  0  0  0  0  0  0  0  0  0  0  0
   11.2087    0.0000    0.0000 C   0  0  0  0  0  0  0  0  0  0  0  0
   12.7317    0.0000    0.0000 N   0  0  0  0  0  0  0  0  0  0  0  0
  1  2  1  0
  2  3  1  0
  3  4  1  0
  4  5  1  0
  5  1  1  0
  2  6  1  6
  3 12  1  6
  1  7  1  1
  4  8  1  1
  7  9  1  0
  9 10  1  0
  6 11  1  0
 14 15  1  0
 13 14  1  0
 12 15  1  0
 13 16  1  0
 16 17  1  0
A    8
R3
A   10
R1
A   11
R2
M  END
>  <symbol>  (833)
nbu2r

>  <m_abbr>  (833)
nbu2r

>  <m_type>  (833)
rna

>  <m_subtype>  (833)
natural

>  <m_RgroupIdx>  (833)
9,10,7

>  <m_Rgroups>  (833)
H,H,OH

$$$$

     RDKit          2D

 15 15  0  0  0  0  0  0  0  0999 V2000
    4.4547    5.1139    0.0000 O   0  0  0  0  0  0  0  0  0  0  0  0
    3.2279    4.2114    0.0000 C   0  0  0  0  0  0  0  0  0  0  0  0
    5.6921    4.2260    0.0000 C   0  0  0  0  0  0  0  0  0  0  0  0
    3.7071    2.7657    0.0000 C   0  0  0  0  0  0  0  0  0  0  0  0
    5.2301    2.7748    0.0000 C   0  0  0  0  0  0  0  0  0  0  0  0
    2.8192    1.5283    0.0000 O   0  0  0  0  0  0  0  0  0  0  0  0
    1.7767    4.6734    0.0000 C   0  0  0  0  0  0  0  0  0  0  0  0
    1.4512    6.1612    0.0000 O   0  0  0  0  0  0  0  0  0  0  0  0
    0.0000    6.6232    0.0000 R#  0  0  0  0  0  0  0  0  0  0  0  0
    7.1378    4.7052    0.0000 R#  0  0  0  0  0  0  0  0  0  0  0  0
    6.1326    1.5480    0.0000 O   0  0  0  0  0  0  0  0  0  0  0  0
    2.8192    0.0000    0.0000 R#  0  0  0  0  0  0  0  0  0  0  0  0
    7.6609    1.5480    0.0000 C   0  0  0  0  0  0  0  0  0  0  0  0
    8.4250    0.2244    0.0000 C   0  0  0  0  0  0  0  0  0  0  0  0
    9.9533    0.2244    0.0000 N   0  0  0  0  0  0  0  0  0  0  0  0
  1  2  1  0
  1  3  1  0
  2  4  1  0
  2  7  1  1
  3  5  1  0
  4  5  1  0
  4  6  1  6
  7  8  1  0
  8  9  1  0
  3 10  1  1
  5 11  1  6
  6 12  1  0
 11 13  1  0
 13 14  1  0
 14 15  1  0
A    9
R1
A   10
R3
A   12
R2
M  END
>  <symbol>  (834)
ne2r

>  <m_abbr>  (834)
ne2r

>  <m_type>  (834)
rna

>  <m_subtype>  (834)
natural

>  <m_RgroupIdx>  (834)
8,11,9

>  <m_Rgroups>  (834)
H,H,OH

$$$$

     RDKit          2D

 22 23  0  0  0  0  0  0  0  0999 V2000
    4.0295   11.8730    0.0000 C   0  0  0  0  0  0  0  0  0  0  0  0
    4.4725   10.4159    0.0000 C   0  0  0  0  0  0  0  0  0  0  0  0
    5.9952   10.3869    0.0000 C   0  0  0  0  0  0  0  0  0  0  0  0
    6.4881   11.8112    0.0000 C   0  0  0  0  0  0  0  0  0  0  0  0
    5.2784   12.7446    0.0000 O   0  0  0  0  0  0  0  0  0  0  0  0
    2.5902   12.3711    0.0000 C   0  0  0  0  0  0  0  0  0  0  0  0
    3.5540    9.2010    0.0000 O   0  0  0  0  0  0  0  0  0  0  0  0
    1.4392   11.3738    0.0000 O   0  0  0  0  0  0  0  0  0  0  0  0
    0.0000   11.8719    0.0000 R#  0  0  0  0  0  0  0  0  0  0  0  0
    3.6047    7.6788    0.0000 R#  0  0  0  0  0  0  0  0  0  0  0  0
    6.8668    9.1380    0.0000 O   0  0  0  0  0  0  0  0  0  0  0  0
    7.9505   12.2691    0.0000 R#  0  0  0  0  0  0  0  0  0  0  0  0
    6.8668    7.6150    0.0000 C   0  0  0  0  0  0  0  0  0  0  0  0
    8.1857    6.8535    0.0000 C   0  0  0  0  0  0  0  0  0  0  0  0
    8.1857    5.3305    0.0000 O   0  0  0  0  0  0  0  0  0  0  0  0
    9.5047    4.5690    0.0000 C   0  0  0  0  0  0  0  0  0  0  0  0
    9.5047    3.0460    0.0000 C   0  0  0  0  0  0  0  0  0  0  0  0
    8.1857    2.2845    0.0000 C   0  0  0  0  0  0  0  0  0  0  0  0
    8.1857    0.7615    0.0000 C   0  0  0  0  0  0  0  0  0  0  0  0
    9.5047    0.0000    0.0000 C   0  0  0  0  0  0  0  0  0  0  0  0
   10.8236    0.7615    0.0000 C   0  0  0  0  0  0  0  0  0  0  0  0
   10.8236    2.2845    0.0000 C   0  0  0  0  0  0  0  0  0  0  0  0
  1  2  1  0
  2  3  1  0
  3  4  1  0
  4  5  1  0
  5  1  1  0
  1  6  1  1
  2  7  1  6
  6  8  1  0
  8  9  1  0
  7 10  1  0
  3 11  1  6
  4 12  1  1
 11 13  1  0
 13 14  1  0
 14 15  1  0
 15 16  1  0
 16 17  1  0
 17 18  2  0
 18 19  1  0
 19 20  2  0
 20 21  1  0
 21 22  2  0
 22 17  1  0
A    9
R1
A   10
R2
A   12
R3
M  END
>  <symbol>  (835)
bnoe2r

>  <m_abbr>  (835)
bnoe2r

>  <m_type>  (835)
rna

>  <m_subtype>  (835)
natural

>  <m_RgroupIdx>  (835)
8,9,11

>  <m_Rgroups>  (835)
H,H,OH

$$$$

     RDKit          2D

 21 22  0  0  0  0  0  0  0  0999 V2000
    4.0295   11.1707    0.0000 C   0  0  0  0  0  0  0  0  0  0  0  0
    4.4725    9.7136    0.0000 C   0  0  0  0  0  0  0  0  0  0  0  0
    5.9952    9.6846    0.0000 C   0  0  0  0  0  0  0  0  0  0  0  0
    6.4881   11.1089    0.0000 C   0  0  0  0  0  0  0  0  0  0  0  0
    5.2784   12.0423    0.0000 O   0  0  0  0  0  0  0  0  0  0  0  0
    2.5902   11.6688    0.0000 C   0  0  0  0  0  0  0  0  0  0  0  0
    3.5540    8.4987    0.0000 O   0  0  0  0  0  0  0  0  0  0  0  0
    1.4392   10.6715    0.0000 O   0  0  0  0  0  0  0  0  0  0  0  0
    0.0000   11.1696    0.0000 R#  0  0  0  0  0  0  0  0  0  0  0  0
    3.6047    6.9765    0.0000 R#  0  0  0  0  0  0  0  0  0  0  0  0
    6.8668    8.4357    0.0000 O   0  0  0  0  0  0  0  0  0  0  0  0
    7.9505   11.5668    0.0000 R#  0  0  0  0  0  0  0  0  0  0  0  0
    6.8668    6.9127    0.0000 C   0  0  0  0  0  0  0  0  0  0  0  0
    8.1857    6.1512    0.0000 C   0  0  0  0  0  0  0  0  0  0  0  0
    8.1857    4.6282    0.0000 C   0  0  0  0  0  0  0  0  0  0  0  0
    9.5047    3.8667    0.0000 C   0  0  0  0  0  0  0  0  0  0  0  0
    9.5047    2.3437    0.0000 N   0  0  0  0  0  0  0  0  0  0  0  0
    8.2726    1.4485    0.0000 C   0  0  0  0  0  0  0  0  0  0  0  0
    8.7432    0.0000    0.0000 N   0  0  0  0  0  0  0  0  0  0  0  0
   10.2662    0.0000    0.0000 C   0  0  0  0  0  0  0  0  0  0  0  0
   10.7368    1.4485    0.0000 C   0  0  0  0  0  0  0  0  0  0  0  0
  1  2  1  0
  2  3  1  0
  3  4  1  0
  4  5  1  0
  5  1  1  0
  1  6  1  1
  2  7  1  6
  6  8  1  0
  8  9  1  0
  7 10  1  0
  3 11  1  6
  4 12  1  1
 11 13  1  0
 13 14  1  0
 14 15  1  0
 15 16  1  0
 16 17  1  0
 17 18  1  0
 18 19  2  0
 19 20  1  0
 20 21  2  0
 21 17  1  0
A    9
R1
A   10
R2
A   12
R3
M  END
>  <symbol>  (836)
imbu2r

>  <m_abbr>  (836)
imbu2r

>  <m_type>  (836)
rna

>  <m_subtype>  (836)
natural

>  <m_RgroupIdx>  (836)
8,9,11

>  <m_Rgroups>  (836)
H,H,OH

$$$$

     RDKit          2D

 16 16  0  0  0  0  0  0  0  0999 V2000
    4.4392    6.1915    0.0000 O   0  0  0  0  0  0  0  0  0  0  0  0
    3.2167    5.2921    0.0000 C   0  0  0  0  0  0  0  0  0  0  0  0
    5.6723    5.3067    0.0000 C   0  0  0  0  0  0  0  0  0  0  0  0
    3.6942    3.8514    0.0000 C   0  0  0  0  0  0  0  0  0  0  0  0
    5.2119    3.8605    0.0000 C   0  0  0  0  0  0  0  0  0  0  0  0
    2.8094    2.6183    0.0000 O   0  0  0  0  0  0  0  0  0  0  0  0
    1.7705    5.7525    0.0000 C   0  0  0  0  0  0  0  0  0  0  0  0
    1.4462    7.2351    0.0000 O   0  0  0  0  0  0  0  0  0  0  0  0
    0.0000    7.6956    0.0000 R#  0  0  0  0  0  0  0  0  0  0  0  0
    7.1130    5.7842    0.0000 R#  0  0  0  0  0  0  0  0  0  0  0  0
    6.1113    2.6380    0.0000 O   0  0  0  0  0  0  0  0  0  0  0  0
    2.8094    1.0953    0.0000 R#  0  0  0  0  0  0  0  0  0  0  0  0
    7.6343    2.6380    0.0000 C   0  0  0  0  0  0  0  0  0  0  0  0
    8.3958    1.3190    0.0000 C   0  0  0  0  0  0  0  0  0  0  0  0
    9.9188    1.3190    0.0000 N   0  0  0  0  0  0  0  0  0  0  0  0
   10.6803    0.0000    0.0000 C   0  0  0  0  0  0  0  0  0  0  0  0
  1  2  1  0
  1  3  1  0
  2  4  1  0
  2  7  1  1
  3  5  1  0
  4  5  1  0
  4  6  1  6
  7  8  1  0
  8  9  1  0
  3 10  1  1
  5 11  1  6
  6 12  1  0
 11 13  1  0
 13 14  1  0
 14 15  1  0
 15 16  1  0
A    9
R1
A   10
R3
A   12
R2
M  END
>  <symbol>  (837)
mne2r

>  <m_abbr>  (837)
mne2r

>  <m_type>  (837)
rna

>  <m_subtype>  (837)
natural

>  <m_RgroupIdx>  (837)
8,11,9

>  <m_Rgroups>  (837)
H,H,OH

$$$$

     RDKit          2D

 12 12  0  0  0  0  0  0  0  0999 V2000
    4.0293    4.2012    0.0000 C   0  0  0  0  0  0  0  0  0  0  0  0
    4.4331    2.7485    0.0000 C   0  0  0  0  0  0  0  0  0  0  0  0
    5.9559    2.7740    0.0000 C   0  0  0  0  0  0  0  0  0  0  0  0
    6.4654    4.2239    0.0000 C   0  0  0  0  0  0  0  0  0  0  0  0
    5.2860    5.1613    0.0000 C   0  0  0  0  0  0  0  0  0  0  0  0
    3.5218    1.5283    0.0000 O   0  0  0  0  0  0  0  0  0  0  0  0
    2.5854    4.6856    0.0000 C   0  0  0  0  0  0  0  0  0  0  0  0
    7.9289    4.6457    0.0000 R#  0  0  0  0  0  0  0  0  0  0  0  0
    1.4440    3.6772    0.0000 O   0  0  0  0  0  0  0  0  0  0  0  0
    0.0000    4.1616    0.0000 R#  0  0  0  0  0  0  0  0  0  0  0  0
    3.5218    0.0000    0.0000 R#  0  0  0  0  0  0  0  0  0  0  0  0
    5.2860    6.6896    0.0000 O   0  0  0  0  0  0  0  0  0  0  0  0
  1  2  1  0
  2  3  1  0
  3  4  1  0
  4  5  1  0
  5  1  1  0
  2  6  1  6
  1  7  1  1
  4  8  1  1
  7  9  1  0
  9 10  1  0
  6 11  1  0
  5 12  1  1
A    8
R3
A   10
R1
A   11
R2
M  END
>  <symbol>  (838)
Bcoh4d

>  <m_abbr>  (838)
Bcoh4d

>  <m_type>  (838)
rna

>  <m_subtype>  (838)
natural

>  <m_RgroupIdx>  (838)
9,10,7

>  <m_Rgroups>  (838)
H,H,OH

$$$$

     RDKit          2D

 16 16  0  0  0  0  0  0  0  0999 V2000
    4.4547    6.2130    0.0000 O   0  0  0  0  0  0  0  0  0  0  0  0
    3.2280    5.3105    0.0000 C   0  0  0  0  0  0  0  0  0  0  0  0
    5.6922    5.3251    0.0000 C   0  0  0  0  0  0  0  0  0  0  0  0
    3.7071    3.8648    0.0000 C   0  0  0  0  0  0  0  0  0  0  0  0
    5.2301    3.8739    0.0000 C   0  0  0  0  0  0  0  0  0  0  0  0
    2.8193    2.6274    0.0000 O   0  0  0  0  0  0  0  0  0  0  0  0
    1.7767    5.7725    0.0000 C   0  0  0  0  0  0  0  0  0  0  0  0
    1.4512    7.2603    0.0000 O   0  0  0  0  0  0  0  0  0  0  0  0
    0.0000    7.7223    0.0000 R#  0  0  0  0  0  0  0  0  0  0  0  0
    7.1378    5.8044    0.0000 R#  0  0  0  0  0  0  0  0  0  0  0  0
    6.1326    2.6471    0.0000 C   0  0  0  0  0  0  0  0  0  0  0  0
    2.8193    1.0991    0.0000 R#  0  0  0  0  0  0  0  0  0  0  0  0
    7.6609    2.6471    0.0000 C   0  0  0  0  0  0  0  0  0  0  0  0
    8.4251    1.3236    0.0000 C   0  0  0  0  0  0  0  0  0  0  0  0
    9.9534    1.3236    0.0000 O   0  0  0  0  0  0  0  0  0  0  0  0
   10.7175    0.0000    0.0000 C   0  0  0  0  0  0  0  0  0  0  0  0
  1  2  1  0
  1  3  1  0
  2  4  1  0
  2  7  1  1
  3  5  1  0
  4  5  1  0
  4  6  1  6
  7  8  1  0
  8  9  1  0
  3 10  1  1
  5 11  1  6
  6 12  1  0
 11 13  1  0
 13 14  1  0
 14 15  1  0
 15 16  1  0
A    9
R1
A   10
R3
A   12
R2
M  END
>  <symbol>  (839)
mopr2d

>  <m_abbr>  (839)
mopr2d

>  <m_type>  (839)
rna

>  <m_subtype>  (839)
natural

>  <m_RgroupIdx>  (839)
8,11,9

>  <m_Rgroups>  (839)
H,H,OH

$$$$

     RDKit          2D

 16 16  0  0  0  0  0  0  0  0999 V2000
    4.4392    5.0962    0.0000 O   0  0  0  0  0  0  0  0  0  0  0  0
    3.2167    4.1968    0.0000 C   0  0  0  0  0  0  0  0  0  0  0  0
    5.6723    4.2114    0.0000 C   0  0  0  0  0  0  0  0  0  0  0  0
    3.6942    2.7562    0.0000 C   0  0  0  0  0  0  0  0  0  0  0  0
    5.2119    2.7652    0.0000 C   0  0  0  0  0  0  0  0  0  0  0  0
    2.8094    1.5230    0.0000 O   0  0  0  0  0  0  0  0  0  0  0  0
    1.7705    4.6572    0.0000 C   0  0  0  0  0  0  0  0  0  0  0  0
    1.4461    6.1399    0.0000 O   0  0  0  0  0  0  0  0  0  0  0  0
    0.0000    6.6003    0.0000 R#  0  0  0  0  0  0  0  0  0  0  0  0
    7.1130    4.6889    0.0000 R#  0  0  0  0  0  0  0  0  0  0  0  0
    6.1113    1.5427    0.0000 O   0  0  0  0  0  0  0  0  0  0  0  0
    2.8094    0.0000    0.0000 R#  0  0  0  0  0  0  0  0  0  0  0  0
    7.6343    1.5427    0.0000 C   0  0  0  0  0  0  0  0  0  0  0  0
    8.3958    0.2237    0.0000 N   0  0  0  0  0  0  0  0  0  0  0  0
    8.3958    2.8616    0.0000 O   0  0  0  0  0  0  0  0  0  0  0  0
    9.9188    0.2237    0.0000 C   0  0  0  0  0  0  0  0  0  0  0  0
  1  2  1  0
  1  3  1  0
  2  4  1  0
  2  7  1  1
  3  5  1  0
  4  5  1  0
  4  6  1  6
  7  8  1  0
  8  9  1  0
  3 10  1  1
  5 11  1  6
  6 12  1  0
 11 13  1  0
 13 14  1  0
 13 15  2  0
 14 16  1  0
A    9
R1
A   10
R3
A   12
R2
M  END
>  <symbol>  (840)
mnc2r

>  <m_abbr>  (840)
mnc2r

>  <m_type>  (840)
rna

>  <m_subtype>  (840)
natural

>  <m_RgroupIdx>  (840)
8,11,9

>  <m_Rgroups>  (840)
H,H,OH

$$$$

     RDKit          2D

 16 16  0  0  0  0  0  0  0  0999 V2000
    4.0293    4.9549    0.0000 C   0  0  0  0  0  0  0  0  0  0  0  0
    4.4330    3.5022    0.0000 C   0  0  0  0  0  0  0  0  0  0  0  0
    5.9558    3.5277    0.0000 C   0  0  0  0  0  0  0  0  0  0  0  0
    6.4654    4.9776    0.0000 C   0  0  0  0  0  0  0  0  0  0  0  0
    5.2860    5.9150    0.0000 O   0  0  0  0  0  0  0  0  0  0  0  0
    3.5217    2.2819    0.0000 O   0  0  0  0  0  0  0  0  0  0  0  0
    2.5853    5.4392    0.0000 C   0  0  0  0  0  0  0  0  0  0  0  0
    7.9288    5.3993    0.0000 R#  0  0  0  0  0  0  0  0  0  0  0  0
    1.4439    4.4309    0.0000 O   0  0  0  0  0  0  0  0  0  0  0  0
    0.0000    4.9153    0.0000 R#  0  0  0  0  0  0  0  0  0  0  0  0
    6.8467    2.2924    0.0000 O   0  0  0  0  0  0  0  0  0  0  0  0
    3.5217    0.7537    0.0000 R#  0  0  0  0  0  0  0  0  0  0  0  0
    6.8467    0.7641    0.0000 C   0  0  0  0  0  0  0  0  0  0  0  0
    8.1702    0.0000    0.0000 C   0  0  0  0  0  0  0  0  0  0  0  0
    9.4938    0.7641    0.0000 O   0  0  0  0  0  0  0  0  0  0  0  0
   10.8173    0.0000    0.0000 N   0  0  0  0  0  0  0  0  0  0  0  0
  1  2  1  0
  2  3  1  0
  3  4  1  0
  4  5  1  0
  5  1  1  0
  2  6  1  6
  3 11  1  6
  1  7  1  1
  4  8  1  1
  7  9  1  0
  9 10  1  0
  6 12  1  0
 11 13  1  0
 13 14  1  0
 14 15  1  0
 15 16  1  0
A    8
R3
A   10
R1
A   12
R2
M  END
>  <symbol>  (841)
aoe2r

>  <m_abbr>  (841)
aoe2r

>  <m_type>  (841)
rna

>  <m_subtype>  (841)
natural

>  <m_RgroupIdx>  (841)
9,11,7

>  <m_Rgroups>  (841)
H,H,OH

$$$$

     RDKit          2D

 21 22  0  0  0  0  0  0  0  0999 V2000
    3.9168    8.0529    0.0000 C   0  0  0  0  0  0  0  0  0  0  0  0
    4.2872    6.5757    0.0000 C   0  0  0  0  0  0  0  0  0  0  0  0
    5.8256    6.5623    0.0000 C   0  0  0  0  0  0  0  0  0  0  0  0
    6.3774    8.0133    0.0000 C   0  0  0  0  0  0  0  0  0  0  0  0
    5.2104    8.9902    0.0000 O   0  0  0  0  0  0  0  0  0  0  0  0
    3.3407    5.3825    0.0000 O   0  0  0  0  0  0  0  0  0  0  0  0
    2.4856    8.5738    0.0000 C   0  0  0  0  0  0  0  0  0  0  0  0
    7.8525    8.3918    0.0000 R#  0  0  0  0  0  0  0  0  0  0  0  0
    1.3190    7.5949    0.0000 O   0  0  0  0  0  0  0  0  0  0  0  0
    0.0000    8.3564    0.0000 R#  0  0  0  0  0  0  0  0  0  0  0  0
    3.3407    3.8595    0.0000 R#  0  0  0  0  0  0  0  0  0  0  0  0
    6.6397    5.2759    0.0000 O   0  0  0  0  0  0  0  0  0  0  0  0
    8.9242    3.9569    0.0000 C   0  0  0  0  0  0  0  0  0  0  0  0
    8.1627    5.2759    0.0000 C   0  0  0  0  0  0  0  0  0  0  0  0
   10.4472    3.9569    0.0000 O   0  0  0  0  0  0  0  0  0  0  0  0
   11.2087    2.6379    0.0000 C   0  0  0  0  0  0  0  0  0  0  0  0
   10.4472    1.3190    0.0000 C   0  0  0  0  0  0  0  0  0  0  0  0
   11.2087    0.0000    0.0000 C   0  0  0  0  0  0  0  0  0  0  0  0
   12.7317    0.0000    0.0000 C   0  0  0  0  0  0  0  0  0  0  0  0
   13.4932    1.3190    0.0000 C   0  0  0  0  0  0  0  0  0  0  0  0
   12.7317    2.6379    0.0000 C   0  0  0  0  0  0  0  0  0  0  0  0
  1  2  1  0
  2  3  1  0
  3  4  1  0
  4  5  1  0
  5  1  1  0
  2  6  1  6
  3 12  1  6
  1  7  1  1
  4  8  1  1
  7  9  1  0
  9 10  1  0
  6 11  1  0
 13 14  1  0
 12 14  1  0
 13 15  1  0
 15 16  1  0
 16 17  2  0
 17 18  1  0
 18 19  2  0
 19 20  1  0
 20 21  2  0
 21 16  1  0
A    8
R3
A   10
R1
A   11
R2
M  END
>  <symbol>  (842)
phoe2r

>  <m_abbr>  (842)
phoe2r

>  <m_type>  (842)
rna

>  <m_subtype>  (842)
natural

>  <m_RgroupIdx>  (842)
9,10,7

>  <m_Rgroups>  (842)
H,H,OH

$$$$

     RDKit          2D

 17 17  0  0  0  0  0  0  0  0999 V2000
    4.4547    6.2130    0.0000 O   0  0  0  0  0  0  0  0  0  0  0  0
    3.2279    5.3105    0.0000 C   0  0  0  0  0  0  0  0  0  0  0  0
    5.6921    5.3251    0.0000 C   0  0  0  0  0  0  0  0  0  0  0  0
    3.7071    3.8648    0.0000 C   0  0  0  0  0  0  0  0  0  0  0  0
    5.2301    3.8739    0.0000 C   0  0  0  0  0  0  0  0  0  0  0  0
    2.8192    2.6274    0.0000 O   0  0  0  0  0  0  0  0  0  0  0  0
    1.7767    5.7725    0.0000 C   0  0  0  0  0  0  0  0  0  0  0  0
    1.4512    7.2603    0.0000 O   0  0  0  0  0  0  0  0  0  0  0  0
    0.0000    7.7224    0.0000 R#  0  0  0  0  0  0  0  0  0  0  0  0
    7.1378    5.8044    0.0000 R#  0  0  0  0  0  0  0  0  0  0  0  0
    6.1326    2.6471    0.0000 O   0  0  0  0  0  0  0  0  0  0  0  0
    2.8192    1.0991    0.0000 R#  0  0  0  0  0  0  0  0  0  0  0  0
    7.6609    2.6471    0.0000 C   0  0  0  0  0  0  0  0  0  0  0  0
    8.4250    1.3236    0.0000 C   0  0  0  0  0  0  0  0  0  0  0  0
    9.9533    1.3236    0.0000 O   0  0  0  0  0  0  0  0  0  0  0  0
   10.7175    0.0000    0.0000 N   0  0  0  0  0  0  0  0  0  0  0  0
   12.2458    0.0000    0.0000 C   0  0  0  0  0  0  0  0  0  0  0  0
  1  2  1  0
  1  3  1  0
  2  4  1  0
  2  7  1  1
  3  5  1  0
  4  5  1  0
  4  6  1  6
  7  8  1  0
  8  9  1  0
  3 10  1  1
  5 11  1  6
  6 12  1  0
 11 13  1  0
 13 14  1  0
 14 15  1  0
 15 16  1  0
 16 17  2  0
A    9
R1
A   10
R3
A   12
R2
M  END
>  <symbol>  (843)
menoe2r

>  <m_abbr>  (843)
menoe2r

>  <m_type>  (843)
rna

>  <m_subtype>  (843)
natural

>  <m_RgroupIdx>  (843)
8,11,9

>  <m_Rgroups>  (843)
H,H,OH

$$$$

     RDKit          2D

 19 20  0  0  0  0  0  0  0  0999 V2000
    4.0153    8.8044    0.0000 C   0  0  0  0  0  0  0  0  0  0  0  0
    4.4177    7.3567    0.0000 C   0  0  0  0  0  0  0  0  0  0  0  0
    5.9352    7.3822    0.0000 C   0  0  0  0  0  0  0  0  0  0  0  0
    6.4430    8.8269    0.0000 C   0  0  0  0  0  0  0  0  0  0  0  0
    5.2677    9.7611    0.0000 O   0  0  0  0  0  0  0  0  0  0  0  0
    3.5095    6.1407    0.0000 O   0  0  0  0  0  0  0  0  0  0  0  0
    2.5764    9.2870    0.0000 C   0  0  0  0  0  0  0  0  0  0  0  0
    7.9014    9.2473    0.0000 R#  0  0  0  0  0  0  0  0  0  0  0  0
    1.4390    8.2822    0.0000 O   0  0  0  0  0  0  0  0  0  0  0  0
    0.0000    8.7649    0.0000 R#  0  0  0  0  0  0  0  0  0  0  0  0
    6.8229    6.1511    0.0000 O   0  0  0  0  0  0  0  0  0  0  0  0
    3.5095    4.6177    0.0000 R#  0  0  0  0  0  0  0  0  0  0  0  0
    6.8229    4.6281    0.0000 C   0  0  0  0  0  0  0  0  0  0  0  0
    8.1419    3.8666    0.0000 C   0  0  0  0  0  0  0  0  0  0  0  0
    8.1419    2.3436    0.0000 N   0  0  0  0  0  0  0  0  0  0  0  0
    6.9098    1.4484    0.0000 C   0  0  0  0  0  0  0  0  0  0  0  0
    7.3804    0.0000    0.0000 C   0  0  0  0  0  0  0  0  0  0  0  0
    8.9034    0.0000    0.0000 N   0  0  0  0  0  0  0  0  0  0  0  0
    9.3740    1.4484    0.0000 C   0  0  0  0  0  0  0  0  0  0  0  0
  1  2  1  0
  2  3  1  0
  3  4  1  0
  4  5  1  0
  5  1  1  0
  2  6  1  6
  3 11  1  6
  1  7  1  1
  4  8  1  1
  7  9  1  0
  9 10  1  0
  6 12  1  0
 11 13  1  0
 13 14  1  0
 14 15  1  0
 15 16  1  0
 16 17  2  0
 17 18  1  0
 18 19  2  0
 19 15  1  0
A    8
R3
A   10
R1
A   12
R2
M  END
>  <symbol>  (844)
ime2r

>  <m_abbr>  (844)
ime2r

>  <m_type>  (844)
rna

>  <m_subtype>  (844)
natural

>  <m_RgroupIdx>  (844)
9,11,7

>  <m_Rgroups>  (844)
H,H,OH

$$$$

     RDKit          2D

 16 16  0  0  0  0  0  0  0  0999 V2000
    4.4547    6.2129    0.0000 O   0  0  0  0  0  0  0  0  0  0  0  0
    3.2280    5.3104    0.0000 C   0  0  0  0  0  0  0  0  0  0  0  0
    5.6922    5.3251    0.0000 C   0  0  0  0  0  0  0  0  0  0  0  0
    3.7071    3.8648    0.0000 C   0  0  0  0  0  0  0  0  0  0  0  0
    5.2301    3.8739    0.0000 C   0  0  0  0  0  0  0  0  0  0  0  0
    2.8193    2.6274    0.0000 O   0  0  0  0  0  0  0  0  0  0  0  0
    1.7767    5.7725    0.0000 C   0  0  0  0  0  0  0  0  0  0  0  0
    1.4512    7.2603    0.0000 O   0  0  0  0  0  0  0  0  0  0  0  0
    0.0000    7.7223    0.0000 R#  0  0  0  0  0  0  0  0  0  0  0  0
    7.1378    5.8043    0.0000 R#  0  0  0  0  0  0  0  0  0  0  0  0
    6.1326    2.6471    0.0000 O   0  0  0  0  0  0  0  0  0  0  0  0
    2.8193    1.0991    0.0000 R#  0  0  0  0  0  0  0  0  0  0  0  0
    7.6609    2.6471    0.0000 C   0  0  0  0  0  0  0  0  0  0  0  0
    8.4251    1.3235    0.0000 O   0  0  0  0  0  0  0  0  0  0  0  0
    9.9534    1.3235    0.0000 C   0  0  0  0  0  0  0  0  0  0  0  0
   10.7175    0.0000    0.0000 C   0  0  0  0  0  0  0  0  0  0  0  0
  1  2  1  0
  1  3  1  0
  2  4  1  0
  2  7  1  1
  3  5  1  0
  4  5  1  0
  4  6  1  6
  7  8  1  0
  8  9  1  0
  3 10  1  1
  5 11  1  6
  6 12  1  0
 11 13  1  0
 13 14  1  0
 14 15  1  0
 15 16  1  0
A    9
R1
A   10
R3
A   12
R2
M  END
>  <symbol>  (845)
eom2r

>  <m_abbr>  (845)
eom2r

>  <m_type>  (845)
rna

>  <m_subtype>  (845)
natural

>  <m_RgroupIdx>  (845)
8,11,9

>  <m_Rgroups>  (845)
H,H,OH

$$$$

     RDKit          2D

 20 21  0  0  0  0  0  0  0  0999 V2000
    8.9163    2.8710    0.0000 C   0  0  0  0  0  0  0  0  0  0  0  0
    8.1574    4.1854    0.0000 C   0  0  0  0  0  0  0  0  0  0  0  0
   10.4257    2.7124    0.0000 O   0  0  0  0  0  0  0  0  0  0  0  0
    8.2990    1.4845    0.0000 C   0  0  0  0  0  0  0  0  0  0  0  0
    9.4269    0.4690    0.0000 O   0  0  0  0  0  0  0  0  0  0  0  0
   10.7413    1.2278    0.0000 C   0  0  0  0  0  0  0  0  0  0  0  0
   11.6333    0.0000    0.0000 C   0  0  0  0  0  0  0  0  0  0  0  0
   12.2507    1.3864    0.0000 C   0  0  0  0  0  0  0  0  0  0  0  0
    3.9168    6.9624    0.0000 C   0  0  0  0  0  0  0  0  0  0  0  0
    4.2872    5.4852    0.0000 C   0  0  0  0  0  0  0  0  0  0  0  0
    5.8256    5.4718    0.0000 C   0  0  0  0  0  0  0  0  0  0  0  0
    6.3774    6.9228    0.0000 C   0  0  0  0  0  0  0  0  0  0  0  0
    5.2105    7.8997    0.0000 O   0  0  0  0  0  0  0  0  0  0  0  0
    3.3407    4.2920    0.0000 O   0  0  0  0  0  0  0  0  0  0  0  0
    2.4857    7.4833    0.0000 C   0  0  0  0  0  0  0  0  0  0  0  0
    7.8526    7.3014    0.0000 R#  0  0  0  0  0  0  0  0  0  0  0  0
    1.3190    6.5044    0.0000 O   0  0  0  0  0  0  0  0  0  0  0  0
    0.0000    7.2659    0.0000 R#  0  0  0  0  0  0  0  0  0  0  0  0
    3.3407    2.7690    0.0000 R#  0  0  0  0  0  0  0  0  0  0  0  0
    6.6397    4.1854    0.0000 O   0  0  0  0  0  0  0  0  0  0  0  0
  1  2  1  6
 20  2  1  0
  3  1  1  0
  1  4  1  0
  4  5  1  0
  5  6  1  0
  6  3  1  0
  6  7  1  0
  6  8  1  0
  9 10  1  0
 10 11  1  0
 11 12  1  0
 12 13  1  0
 13  9  1  0
 10 14  1  6
 11 20  1  6
  9 15  1  1
 12 16  1  1
 15 17  1  0
 17 18  1  0
 14 19  1  0
A   16
R3
A   18
R1
A   19
R2
M  END
>  <symbol>  (846)
Diprglyol2r

>  <m_abbr>  (846)
Diprglyol2r

>  <m_type>  (846)
rna

>  <m_subtype>  (846)
natural

>  <m_RgroupIdx>  (846)
17,18,15

>  <m_Rgroups>  (846)
H,H,OH

$$$$

     RDKit          2D

 20 21  0  0  0  0  0  0  0  0999 V2000
    8.9163    2.8710    0.0000 C   0  0  0  0  0  0  0  0  0  0  0  0
    8.1574    4.1854    0.0000 C   0  0  0  0  0  0  0  0  0  0  0  0
   10.4257    2.7124    0.0000 O   0  0  0  0  0  0  0  0  0  0  0  0
    8.2990    1.4845    0.0000 C   0  0  0  0  0  0  0  0  0  0  0  0
    9.4269    0.4690    0.0000 O   0  0  0  0  0  0  0  0  0  0  0  0
   10.7413    1.2278    0.0000 C   0  0  0  0  0  0  0  0  0  0  0  0
   11.6333    0.0000    0.0000 C   0  0  0  0  0  0  0  0  0  0  0  0
   12.2507    1.3864    0.0000 C   0  0  0  0  0  0  0  0  0  0  0  0
    3.9168    6.9624    0.0000 C   0  0  0  0  0  0  0  0  0  0  0  0
    4.2872    5.4852    0.0000 C   0  0  0  0  0  0  0  0  0  0  0  0
    5.8256    5.4718    0.0000 C   0  0  0  0  0  0  0  0  0  0  0  0
    6.3774    6.9228    0.0000 C   0  0  0  0  0  0  0  0  0  0  0  0
    5.2105    7.8997    0.0000 O   0  0  0  0  0  0  0  0  0  0  0  0
    3.3407    4.2920    0.0000 O   0  0  0  0  0  0  0  0  0  0  0  0
    2.4857    7.4833    0.0000 C   0  0  0  0  0  0  0  0  0  0  0  0
    7.8526    7.3014    0.0000 R#  0  0  0  0  0  0  0  0  0  0  0  0
    1.3190    6.5044    0.0000 O   0  0  0  0  0  0  0  0  0  0  0  0
    0.0000    7.2659    0.0000 R#  0  0  0  0  0  0  0  0  0  0  0  0
    3.3407    2.7690    0.0000 R#  0  0  0  0  0  0  0  0  0  0  0  0
    6.6397    4.1854    0.0000 O   0  0  0  0  0  0  0  0  0  0  0  0
  1  2  1  1
 20  2  1  0
  3  1  1  0
  1  4  1  0
  4  5  1  0
  5  6  1  0
  6  3  1  0
  6  7  1  0
  6  8  1  0
  9 10  1  0
 10 11  1  0
 11 12  1  0
 12 13  1  0
 13  9  1  0
 10 14  1  6
 11 20  1  6
  9 15  1  1
 12 16  1  1
 15 17  1  0
 17 18  1  0
 14 19  1  0
A   16
R3
A   18
R1
A   19
R2
M  END
>  <symbol>  (847)
Liprglyol2r

>  <m_abbr>  (847)
Liprglyol2r

>  <m_type>  (847)
rna

>  <m_subtype>  (847)
natural

>  <m_RgroupIdx>  (847)
17,18,15

>  <m_Rgroups>  (847)
H,H,OH

$$$$

     RDKit          2D

 15 15  0  0  0  0  0  0  0  0999 V2000
    3.9168    4.1935    0.0000 C   0  0  0  0  0  0  0  0  0  0  0  0
    4.2872    2.7162    0.0000 C   0  0  0  0  0  0  0  0  0  0  0  0
    5.8256    2.7028    0.0000 C   0  0  0  0  0  0  0  0  0  0  0  0
    6.3774    4.1538    0.0000 C   0  0  0  0  0  0  0  0  0  0  0  0
    5.2105    5.1307    0.0000 O   0  0  0  0  0  0  0  0  0  0  0  0
    3.3407    1.5230    0.0000 O   0  0  0  0  0  0  0  0  0  0  0  0
    2.4857    4.7144    0.0000 C   0  0  0  0  0  0  0  0  0  0  0  0
    7.8526    4.5324    0.0000 R#  0  0  0  0  0  0  0  0  0  0  0  0
    1.3190    3.7354    0.0000 O   0  0  0  0  0  0  0  0  0  0  0  0
    0.0000    4.4969    0.0000 R#  0  0  0  0  0  0  0  0  0  0  0  0
    3.3407    0.0000    0.0000 R#  0  0  0  0  0  0  0  0  0  0  0  0
    6.6397    1.4164    0.0000 O   0  0  0  0  0  0  0  0  0  0  0  0
    8.9242    0.0974    0.0000 C   0  0  0  0  0  0  0  0  0  0  0  0
    8.1627    1.4164    0.0000 C   0  0  0  0  0  0  0  0  0  0  0  0
    8.9242    2.7353    0.0000 C   0  0  0  0  0  0  0  0  0  0  0  0
  1  2  1  0
  2  3  1  0
  3  4  1  0
  4  5  1  0
  5  1  1  0
  2  6  1  6
  3 12  1  6
  1  7  1  1
  4  8  1  1
  7  9  1  0
  9 10  1  0
  6 11  1  0
 13 14  1  0
 12 14  1  0
 14 15  1  0
A    8
R3
A   10
R1
A   11
R2
M  END
>  <symbol>  (848)
ipr2r

>  <m_abbr>  (848)
ipr2r

>  <m_type>  (848)
rna

>  <m_subtype>  (848)
natural

>  <m_RgroupIdx>  (848)
9,10,7

>  <m_Rgroups>  (848)
H,H,OH

$$$$

     RDKit          2D

 18 18  0  0  0  0  0  0  0  0999 V2000
    3.9168    5.1730    0.0000 C   0  0  0  0  0  0  0  0  0  0  0  0
    4.2872    3.6957    0.0000 C   0  0  0  0  0  0  0  0  0  0  0  0
    5.8256    3.6823    0.0000 C   0  0  0  0  0  0  0  0  0  0  0  0
    6.3774    5.1333    0.0000 C   0  0  0  0  0  0  0  0  0  0  0  0
    5.2105    6.1102    0.0000 O   0  0  0  0  0  0  0  0  0  0  0  0
    3.3407    2.5025    0.0000 O   0  0  0  0  0  0  0  0  0  0  0  0
    2.4857    5.6939    0.0000 C   0  0  0  0  0  0  0  0  0  0  0  0
    7.8526    5.5119    0.0000 R#  0  0  0  0  0  0  0  0  0  0  0  0
    1.3190    4.7149    0.0000 O   0  0  0  0  0  0  0  0  0  0  0  0
    0.0000    5.4764    0.0000 R#  0  0  0  0  0  0  0  0  0  0  0  0
    3.3407    0.9795    0.0000 R#  0  0  0  0  0  0  0  0  0  0  0  0
    6.6397    2.3959    0.0000 O   0  0  0  0  0  0  0  0  0  0  0  0
    8.9242    1.0769    0.0000 C   0  0  0  0  0  0  0  0  0  0  0  0
    8.1627    2.3959    0.0000 C   0  0  0  0  0  0  0  0  0  0  0  0
   10.4472    1.0769    0.0000 C   0  0  0  0  0  0  0  0  0  0  0  0
   11.9702    1.0769    0.0000 F   0  0  0  0  0  0  0  0  0  0  0  0
   11.2087    2.3959    0.0000 F   0  0  0  0  0  0  0  0  0  0  0  0
   11.5242    0.0000    0.0000 F   0  0  0  0  0  0  0  0  0  0  0  0
  1  2  1  0
  2  3  1  0
  3  4  1  0
  4  5  1  0
  5  1  1  0
  2  6  1  6
  3 12  1  6
  1  7  1  1
  4  8  1  1
  7  9  1  0
  9 10  1  0
  6 11  1  0
 13 14  1  0
 12 14  1  0
 13 15  1  0
 15 16  1  0
 15 17  1  0
 15 18  1  0
A    8
R3
A   10
R1
A   11
R2
M  END
>  <symbol>  (849)
fl3pr2r

>  <m_abbr>  (849)
fl3pr2r

>  <m_type>  (849)
rna

>  <m_subtype>  (849)
natural

>  <m_RgroupIdx>  (849)
9,10,7

>  <m_Rgroups>  (849)
H,H,OH

$$$$

     RDKit          2D

 13 13  0  0  0  0  0  0  0  0999 V2000
    3.9168    4.1934    0.0000 C   0  0  0  0  0  0  0  0  0  0  0  0
    4.2872    2.7162    0.0000 C   0  0  0  0  0  0  0  0  0  0  0  0
    5.8255    2.7028    0.0000 C   0  0  0  0  0  0  0  0  0  0  0  0
    6.3773    4.1538    0.0000 C   0  0  0  0  0  0  0  0  0  0  0  0
    5.2104    5.1307    0.0000 C   0  0  0  0  0  0  0  0  0  0  0  0
    3.3407    1.5230    0.0000 O   0  0  0  0  0  0  0  0  0  0  0  0
    2.4856    4.7143    0.0000 C   0  0  0  0  0  0  0  0  0  0  0  0
    7.8525    4.5323    0.0000 R#  0  0  0  0  0  0  0  0  0  0  0  0
    1.3189    3.7353    0.0000 O   0  0  0  0  0  0  0  0  0  0  0  0
    0.0000    4.4969    0.0000 R#  0  0  0  0  0  0  0  0  0  0  0  0
    3.3407    0.0000    0.0000 R#  0  0  0  0  0  0  0  0  0  0  0  0
    6.6397    1.4164    0.0000 O   0  0  0  0  0  0  0  0  0  0  0  0
    8.1627    1.4164    0.0000 C   0  0  0  0  0  0  0  0  0  0  0  0
  1  2  1  0
  2  3  1  0
  3  4  1  0
  4  5  1  0
  5  1  1  0
  2  6  1  6
  3 12  1  6
  1  7  1  1
  4  8  1  1
  7  9  1  0
  9 10  1  0
  6 11  1  0
 12 13  1  0
A    8
R3
A   10
R1
A   11
R2
M  END
>  <symbol>  (850)
c4m

>  <m_abbr>  (850)
c4m

>  <m_type>  (850)
rna

>  <m_subtype>  (850)
natural

>  <m_RgroupIdx>  (850)
9,10,7

>  <m_Rgroups>  (850)
H,H,OH

$$$$

     RDKit          2D

 12 12  0  0  0  0  0  0  0  0999 V2000
    3.9168    4.1935    0.0000 C   0  0  0  0  0  0  0  0  0  0  0  0
    4.2872    2.7162    0.0000 C   0  0  0  0  0  0  0  0  0  0  0  0
    5.8256    2.7028    0.0000 C   0  0  0  0  0  0  0  0  0  0  0  0
    6.3774    4.1538    0.0000 C   0  0  0  0  0  0  0  0  0  0  0  0
    5.2105    5.1307    0.0000 O   0  0  0  0  0  0  0  0  0  0  0  0
    3.3407    1.5230    0.0000 O   0  0  0  0  0  0  0  0  0  0  0  0
    2.4857    4.7144    0.0000 C   0  0  0  0  0  0  0  0  0  0  0  0
    7.8526    4.5324    0.0000 R#  0  0  0  0  0  0  0  0  0  0  0  0
    1.3190    3.7354    0.0000 O   0  0  0  0  0  0  0  0  0  0  0  0
    0.0000    4.4969    0.0000 R#  0  0  0  0  0  0  0  0  0  0  0  0
    3.3407    0.0000    0.0000 R#  0  0  0  0  0  0  0  0  0  0  0  0
    2.8161    3.1104    0.0000 C   0  0  0  0  0  0  0  0  0  0  0  0
  1  2  1  0
  2  3  1  0
  3  4  1  0
  4  5  1  0
  5  1  1  0
  2  6  1  0
  1  7  1  1
  4  8  1  1
  7  9  1  0
  9 10  1  0
  6 11  1  0
  2 12  1  1
A    8
R3
A   10
R1
A   11
R2
M  END
>  <symbol>  (851)
Bcm3d

>  <m_abbr>  (851)
Bcm3d

>  <m_type>  (851)
rna

>  <m_subtype>  (851)
natural

>  <m_RgroupIdx>  (851)
9,10,7

>  <m_Rgroups>  (851)
H,H,OH

$$$$

     RDKit          2D

 14 14  0  0  0  0  0  0  0  0999 V2000
    3.9168    4.1934    0.0000 C   0  0  0  0  0  0  0  0  0  0  0  0
    4.2872    2.7162    0.0000 C   0  0  0  0  0  0  0  0  0  0  0  0
    5.8255    2.7028    0.0000 C   0  0  0  0  0  0  0  0  0  0  0  0
    6.3773    4.1538    0.0000 C   0  0  0  0  0  0  0  0  0  0  0  0
    5.2104    5.1307    0.0000 N   0  0  0  0  0  0  0  0  0  0  0  0
    3.3407    1.5230    0.0000 O   0  0  0  0  0  0  0  0  0  0  0  0
    2.4856    4.7143    0.0000 C   0  0  0  0  0  0  0  0  0  0  0  0
    7.8525    4.5324    0.0000 R#  0  0  0  0  0  0  0  0  0  0  0  0
    1.3189    3.7354    0.0000 O   0  0  0  0  0  0  0  0  0  0  0  0
    0.0000    4.4969    0.0000 R#  0  0  0  0  0  0  0  0  0  0  0  0
    3.3407    0.0000    0.0000 R#  0  0  0  0  0  0  0  0  0  0  0  0
    5.2637    6.6528    0.0000 C   0  0  0  0  0  0  0  0  0  0  0  0
    6.5827    7.4143    0.0000 C   0  0  0  0  0  0  0  0  0  0  0  0
    3.9583    7.4372    0.0000 O   0  0  0  0  0  0  0  0  0  0  0  0
  1  2  1  0
  2  3  1  0
  3  4  1  0
  4  5  1  0
  5  1  1  0
  2  6  1  6
  1  7  1  1
  4  8  1  1
  7  9  1  0
  9 10  1  0
  6 11  1  0
  5 12  1  0
 12 13  1  0
 12 14  2  0
A    8
R3
A   10
R1
A   11
R2
M  END
>  <symbol>  (852)
acn4d

>  <m_abbr>  (852)
acn4d

>  <m_type>  (852)
rna

>  <m_subtype>  (852)
natural

>  <m_RgroupIdx>  (852)
9,10,7

>  <m_Rgroups>  (852)
H,H,OH

$$$$

     RDKit          2D

 17 17  0  0  0  0  0  0  0  0999 V2000
    3.9168    5.4104    0.0000 C   0  0  0  0  0  0  0  0  0  0  0  0
    4.2872    3.9331    0.0000 C   0  0  0  0  0  0  0  0  0  0  0  0
    5.8256    3.9198    0.0000 C   0  0  0  0  0  0  0  0  0  0  0  0
    6.3716    5.3557    0.0000 C   0  0  0  0  0  0  0  0  0  0  0  0
    5.2104    6.3476    0.0000 O   0  0  0  0  0  0  0  0  0  0  0  0
    3.3407    2.7399    0.0000 O   0  0  0  0  0  0  0  0  0  0  0  0
    2.4856    5.9313    0.0000 C   0  0  0  0  0  0  0  0  0  0  0  0
    7.8526    5.7493    0.0000 R#  0  0  0  0  0  0  0  0  0  0  0  0
    1.3189    4.9523    0.0000 O   0  0  0  0  0  0  0  0  0  0  0  0
    0.0000    5.7138    0.0000 R#  0  0  0  0  0  0  0  0  0  0  0  0
    3.3407    1.2170    0.0000 R#  0  0  0  0  0  0  0  0  0  0  0  0
    6.6397    2.6333    0.0000 O   0  0  0  0  0  0  0  0  0  0  0  0
    8.9242    1.3144    0.0000 C   0  0  0  0  0  0  0  0  0  0  0  0
    8.1627    2.6333    0.0000 C   0  0  0  0  0  0  0  0  0  0  0  0
   10.4419    1.3144    0.0000 N   0  0  0  0  0  0  0  0  0  0  0  0
   11.2008    2.6287    0.0000 C   0  0  0  0  0  0  0  0  0  0  0  0
   11.2008    0.0000    0.0000 C   0  0  0  0  0  0  0  0  0  0  0  0
  1  2  1  0
  2  3  1  0
  3  4  1  0
  4  5  1  0
  5  1  1  0
  2  6  1  6
  3 12  1  6
  1  7  1  1
  4  8  1  1
  7  9  1  0
  9 10  1  0
  6 11  1  0
 13 14  1  0
 12 14  1  0
 15 17  1  0
 15 16  1  0
 13 15  1  0
A    8
R3
A   10
R1
A   11
R2
M  END
>  <symbol>  (853)
m2e2r

>  <m_abbr>  (853)
m2e2r

>  <m_type>  (853)
rna

>  <m_subtype>  (853)
natural

>  <m_RgroupIdx>  (853)
9,10,7

>  <m_Rgroups>  (853)
H,H,OH

$$$$

     RDKit          2D

 16 16  0  0  0  0  0  0  0  0999 V2000
    4.0295    7.2837    0.0000 C   0  0  0  0  0  0  0  0  0  0  0  0
    4.4725    5.8266    0.0000 C   0  0  0  0  0  0  0  0  0  0  0  0
    5.9952    5.7976    0.0000 C   0  0  0  0  0  0  0  0  0  0  0  0
    6.4933    7.2368    0.0000 C   0  0  0  0  0  0  0  0  0  0  0  0
    5.2784    8.1553    0.0000 O   0  0  0  0  0  0  0  0  0  0  0  0
    2.5902    7.7818    0.0000 C   0  0  0  0  0  0  0  0  0  0  0  0
    3.5540    4.6117    0.0000 O   0  0  0  0  0  0  0  0  0  0  0  0
    1.4392    6.7845    0.0000 O   0  0  0  0  0  0  0  0  0  0  0  0
    0.0000    7.2826    0.0000 R#  0  0  0  0  0  0  0  0  0  0  0  0
    3.6047    3.0895    0.0000 C   0  0  0  0  0  0  0  0  0  0  0  0
    6.8668    4.5487    0.0000 O   0  0  0  0  0  0  0  0  0  0  0  0
    7.9504    7.6798    0.0000 R#  0  0  0  0  0  0  0  0  0  0  0  0
    6.8668    3.0256    0.0000 R#  0  0  0  0  0  0  0  0  0  0  0  0
    2.3119    2.2845    0.0000 C   0  0  0  0  0  0  0  0  0  0  0  0
    2.3119    0.7615    0.0000 O   0  0  0  0  0  0  0  0  0  0  0  0
    0.9929    0.0000    0.0000 C   0  0  0  0  0  0  0  0  0  0  0  0
  1  2  1  0
  2  3  1  0
  3  4  1  0
  4  5  1  0
  5  1  1  0
  1  6  1  1
  2  7  1  6
  6  8  1  0
  8  9  1  0
  7 10  1  0
  3 11  1  6
  4 12  1  1
 11 13  1  0
 10 14  1  0
 14 15  1  0
 15 16  1  0
A    9
R1
A   12
R3
A   13
R2
M  END
>  <symbol>  (854)
25moe3r

>  <m_abbr>  (854)
25moe3r

>  <m_type>  (854)
rna

>  <m_subtype>  (854)
natural

>  <m_RgroupIdx>  (854)
8,12,11

>  <m_Rgroups>  (854)
H,H,OH

$$$$

     RDKit          2D

 52 56  0  0  0  0  0  0  0  0999 V2000
    4.0153   17.4006    0.0000 C   0  0  0  0  0  0  0  0  0  0  0  0
    4.4176   15.9530    0.0000 C   0  0  0  0  0  0  0  0  0  0  0  0
    5.9351   15.9784    0.0000 C   0  0  0  0  0  0  0  0  0  0  0  0
    6.4430   17.4232    0.0000 C   0  0  0  0  0  0  0  0  0  0  0  0
    5.2676   18.3574    0.0000 O   0  0  0  0  0  0  0  0  0  0  0  0
    3.5095   14.7370    0.0000 O   0  0  0  0  0  0  0  0  0  0  0  0
    2.5764   17.8833    0.0000 C   0  0  0  0  0  0  0  0  0  0  0  0
    7.9013   17.8435    0.0000 R#  0  0  0  0  0  0  0  0  0  0  0  0
    1.4389   16.8785    0.0000 O   0  0  0  0  0  0  0  0  0  0  0  0
    0.0000   17.3611    0.0000 R#  0  0  0  0  0  0  0  0  0  0  0  0
    4.1085   13.3425    0.0000 C   0  0  0  0  0  0  0  0  0  0  0  0
    6.8229   14.7474    0.0000 O   0  0  0  0  0  0  0  0  0  0  0  0
    8.3328   14.9007    0.0000 R#  0  0  0  0  0  0  0  0  0  0  0  0
    3.2003   12.1264    0.0000 C   0  0  0  0  0  0  0  0  0  0  0  0
    3.7993   10.7319    0.0000 C   0  0  0  0  0  0  0  0  0  0  0  0
    2.8912    9.5159    0.0000 C   0  0  0  0  0  0  0  0  0  0  0  0
    3.4902    8.1214    0.0000 C   0  0  0  0  0  0  0  0  0  0  0  0
    2.5820    6.9054    0.0000 C   0  0  0  0  0  0  0  0  0  0  0  0
    3.3435    5.5865    0.0000 N   0  0  0  0  0  0  0  0  0  0  0  0
    4.8311    2.9284    0.0000 C   0  0  0  0  0  0  0  0  0  0  0  0
    5.6102    4.2370    0.0000 C   0  0  0  0  0  0  0  0  0  0  0  0
    7.1332    4.2166    0.0000 C   0  0  0  0  0  0  0  0  0  0  0  0
    5.5750    1.5994    0.0000 C   0  0  0  0  0  0  0  0  0  0  0  0
    7.0978    1.5789    0.0000 C   0  0  0  0  0  0  0  0  0  0  0  0
    7.8416    0.2499    0.0000 C   0  0  0  0  0  0  0  0  0  0  0  0
    9.3644    0.2295    0.0000 C   0  0  0  0  0  0  0  0  0  0  0  0
   10.1435    1.5381    0.0000 C   0  0  0  0  0  0  0  0  0  0  0  0
   11.6664    1.5177    0.0000 C   0  0  0  0  0  0  0  0  0  0  0  0
   12.6702    0.3723    0.0000 C   0  0  0  0  0  0  0  0  0  0  0  0
   14.0697    0.9731    0.0000 C   0  0  0  0  0  0  0  0  0  0  0  0
   13.9309    2.4898    0.0000 C   0  0  0  0  0  0  0  0  0  0  0  0
   15.0763    3.4936    0.0000 C   0  0  0  0  0  0  0  0  0  0  0  0
   16.5183    3.0035    0.0000 C   0  0  0  0  0  0  0  0  0  0  0  0
   17.6637    4.0073    0.0000 C   0  0  0  0  0  0  0  0  0  0  0  0
   19.1057    3.5172    0.0000 C   0  0  0  0  0  0  0  0  0  0  0  0
   20.2511    4.5209    0.0000 C   0  0  0  0  0  0  0  0  0  0  0  0
   21.6931    4.0309    0.0000 C   0  0  0  0  0  0  0  0  0  0  0  0
   19.9546    6.0148    0.0000 C   0  0  0  0  0  0  0  0  0  0  0  0
   14.7797    4.9874    0.0000 C   0  0  0  0  0  0  0  0  0  0  0  0
   12.4455    2.8264    0.0000 C   0  0  0  0  0  0  0  0  0  0  0  0
   13.3572    4.0464    0.0000 C   0  0  0  0  0  0  0  0  0  0  0  0
   11.7017    4.1554    0.0000 C   0  0  0  0  0  0  0  0  0  0  0  0
   10.1789    4.1758    0.0000 C   0  0  0  0  0  0  0  0  0  0  0  0
    9.3998    2.8672    0.0000 C   0  0  0  0  0  0  0  0  0  0  0  0
    7.8769    2.8875    0.0000 C   0  0  0  0  0  0  0  0  0  0  0  0
    8.1614    4.3837    0.0000 C   0  0  0  0  0  0  0  0  0  0  0  0
    3.3083    2.9488    0.0000 O   0  0  0  0  0  0  0  0  0  0  0  0
    9.1554    4.3704    0.0000 H   0  0  0  0  0  0  0  0  0  0  0  0
   10.3879    0.0348    0.0000 H   0  0  0  0  0  0  0  0  0  0  0  0
   11.5398    0.0000    0.0000 H   0  0  0  0  0  0  0  0  0  0  0  0
    2.5645    4.2778    0.0000 C   0  0  0  0  0  0  0  0  0  0  0  0
    1.0416    4.2982    0.0000 O   0  0  0  0  0  0  0  0  0  0  0  0
  1  2  1  0
  2  3  1  0
  3  4  1  0
  4  5  1  0
  5  1  1  0
  2  6  1  6
  3 12  1  6
  1  7  1  1
  4  8  1  1
  7  9  1  0
  9 10  1  0
  6 11  1  0
 12 13  1  0
 11 14  1  0
 14 15  1  0
 15 16  1  0
 16 17  1  0
 17 18  1  0
 18 19  1  0
 19 51  1  0
 20 21  1  0
 21 22  1  0
 20 23  1  0
 23 24  1  0
 24 25  2  0
 25 26  1  0
 26 27  1  0
 27 28  1  0
 28 29  1  0
 29 30  1  0
 31 30  1  1
 31 32  1  0
 32 33  1  0
 33 34  1  0
 34 35  1  0
 35 36  1  0
 36 37  1  0
 36 38  1  0
 32 39  1  6
 31 40  1  0
 28 40  1  0
 40 41  1  1
 40 42  1  0
 42 43  1  0
 43 44  1  0
 27 44  1  0
 44 45  1  0
 22 45  1  0
 24 45  1  0
 45 46  1  1
 20 47  1  1
 44 48  1  6
 27 49  1  1
 28 50  1  6
 51 52  2  0
 51 47  1  0
A    8
R3
A   10
R1
A   13
R2
M  END
>  <symbol>  (855)
25cholcnC63r

>  <m_abbr>  (855)
25cholcnC63r

>  <m_type>  (855)
rna

>  <m_subtype>  (855)
natural

>  <m_RgroupIdx>  (855)
9,12,7

>  <m_Rgroups>  (855)
H,H,OH

$$$$

     RDKit          2D

 53 57  0  0  0  0  0  0  0  0999 V2000
   19.5842    2.5237    0.0000 C   0  0  0  0  0  0  0  0  0  0  0  0
   20.2965    3.8698    0.0000 C   0  0  0  0  0  0  0  0  0  0  0  0
   21.8184    3.9260    0.0000 C   0  0  0  0  0  0  0  0  0  0  0  0
   20.3938    1.2337    0.0000 C   0  0  0  0  0  0  0  0  0  0  0  0
   21.9158    1.2899    0.0000 C   0  0  0  0  0  0  0  0  0  0  0  0
   22.7254    0.0000    0.0000 C   0  0  0  0  0  0  0  0  0  0  0  0
   24.2474    0.0562    0.0000 C   0  0  0  0  0  0  0  0  0  0  0  0
   24.9597    1.4023    0.0000 C   0  0  0  0  0  0  0  0  0  0  0  0
   26.4764    1.4583    0.0000 C   0  0  0  0  0  0  0  0  0  0  0  0
   27.5418    0.3651    0.0000 C   0  0  0  0  0  0  0  0  0  0  0  0
   28.9094    1.0355    0.0000 C   0  0  0  0  0  0  0  0  0  0  0  0
   28.6944    2.5432    0.0000 C   0  0  0  0  0  0  0  0  0  0  0  0
   29.7878    3.6034    0.0000 C   0  0  0  0  0  0  0  0  0  0  0  0
   31.2526    3.1865    0.0000 C   0  0  0  0  0  0  0  0  0  0  0  0
   32.3461    4.2467    0.0000 C   0  0  0  0  0  0  0  0  0  0  0  0
   33.8109    3.8298    0.0000 C   0  0  0  0  0  0  0  0  0  0  0  0
   34.9043    4.8900    0.0000 C   0  0  0  0  0  0  0  0  0  0  0  0
   34.4561    6.3455    0.0000 C   0  0  0  0  0  0  0  0  0  0  0  0
   36.3692    4.4731    0.0000 C   0  0  0  0  0  0  0  0  0  0  0  0
   29.3396    5.0589    0.0000 C   0  0  0  0  0  0  0  0  0  0  0  0
   27.1940    2.8047    0.0000 C   0  0  0  0  0  0  0  0  0  0  0  0
   27.9063    4.1508    0.0000 C   0  0  0  0  0  0  0  0  0  0  0  0
   26.3843    4.0946    0.0000 C   0  0  0  0  0  0  0  0  0  0  0  0
   24.8624    4.0384    0.0000 C   0  0  0  0  0  0  0  0  0  0  0  0
   24.1501    2.6923    0.0000 C   0  0  0  0  0  0  0  0  0  0  0  0
   22.6281    2.6361    0.0000 C   0  0  0  0  0  0  0  0  0  0  0  0
   23.3404    3.9822    0.0000 C   0  0  0  0  0  0  0  0  0  0  0  0
   23.4377    1.3461    0.0000 H   0  0  0  0  0  0  0  0  0  0  0  0
   25.6720    2.7485    0.0000 H   0  0  0  0  0  0  0  0  0  0  0  0
   25.7694    0.1124    0.0000 H   0  0  0  0  0  0  0  0  0  0  0  0
    3.9168   11.8393    0.0000 C   0  0  0  0  0  0  0  0  0  0  0  0
    4.2872   10.3621    0.0000 C   0  0  0  0  0  0  0  0  0  0  0  0
    5.8256   10.3487    0.0000 C   0  0  0  0  0  0  0  0  0  0  0  0
    6.3773   11.7997    0.0000 C   0  0  0  0  0  0  0  0  0  0  0  0
    5.2104   12.7766    0.0000 O   0  0  0  0  0  0  0  0  0  0  0  0
    3.3407    9.1689    0.0000 O   0  0  0  0  0  0  0  0  0  0  0  0
    2.4856   12.3602    0.0000 C   0  0  0  0  0  0  0  0  0  0  0  0
    7.8526   12.1783    0.0000 R#  0  0  0  0  0  0  0  0  0  0  0  0
    1.3190   11.3813    0.0000 O   0  0  0  0  0  0  0  0  0  0  0  0
    0.0000   12.1428    0.0000 R#  0  0  0  0  0  0  0  0  0  0  0  0
    3.3407    7.6459    0.0000 R#  0  0  0  0  0  0  0  0  0  0  0  0
    6.6397    9.0623    0.0000 O   0  0  0  0  0  0  0  0  0  0  0  0
   10.4472    7.7433    0.0000 C   0  0  0  0  0  0  0  0  0  0  0  0
    8.9242    7.7433    0.0000 C   0  0  0  0  0  0  0  0  0  0  0  0
    8.1627    9.0623    0.0000 C   0  0  0  0  0  0  0  0  0  0  0  0
   11.2087    6.4244    0.0000 C   0  0  0  0  0  0  0  0  0  0  0  0
   12.7317    6.4244    0.0000 C   0  0  0  0  0  0  0  0  0  0  0  0
   13.4932    5.1054    0.0000 C   0  0  0  0  0  0  0  0  0  0  0  0
   15.0162    5.1054    0.0000 N   0  0  0  0  0  0  0  0  0  0  0  0
   15.7777    3.7865    0.0000 C   0  0  0  0  0  0  0  0  0  0  0  0
   15.0162    2.4675    0.0000 O   0  0  0  0  0  0  0  0  0  0  0  0
   17.3007    3.7865    0.0000 C   0  0  0  0  0  0  0  0  0  0  0  0
   18.0622    2.4675    0.0000 O   0  0  0  0  0  0  0  0  0  0  0  0
  1  2  1  0
  2  3  1  0
  1  4  1  0
  4  5  1  0
  5  6  2  0
  6  7  1  0
  7  8  1  0
  8  9  1  0
  9 10  1  0
 10 11  1  0
 12 11  1  1
 12 13  1  0
 13 14  1  0
 14 15  1  0
 15 16  1  0
 16 17  1  0
 17 18  1  0
 17 19  1  0
 13 20  1  6
 12 21  1  0
  9 21  1  0
 21 22  1  1
 21 23  1  0
 23 24  1  0
 24 25  1  0
  8 25  1  0
 25 26  1  0
  3 26  1  0
  5 26  1  0
 26 27  1  1
  1 53  1  1
 25 28  1  6
  8 29  1  1
  9 30  1  6
 31 32  1  0
 32 33  1  0
 33 34  1  0
 34 35  1  0
 35 31  1  0
 32 36  1  6
 33 42  1  6
 31 37  1  1
 34 38  1  1
 37 39  1  0
 39 40  1  0
 36 41  1  0
 44 45  1  0
 43 44  1  0
 42 45  1  0
 43 46  1  0
 46 47  1  0
 47 48  1  0
 48 49  1  0
 49 50  1  0
 50 51  2  0
 50 52  1  0
 52 53  1  0
A   38
R3
A   40
R1
A   41
R2
M  END
>  <symbol>  (856)
cholmcnC62r

>  <m_abbr>  (856)
cholmcnC62r

>  <m_type>  (856)
rna

>  <m_subtype>  (856)
natural

>  <m_RgroupIdx>  (856)
39,40,37

>  <m_Rgroups>  (856)
H,H,OH

$$$$

     RDKit          2D

 12 13  0  0  0  0  0  0  0  0999 V2000
    4.0690    4.2992    0.0000 C   0  0  0  0  0  0  0  0  0  0  0  0
    4.4394    2.8219    0.0000 C   0  0  0  0  0  0  0  0  0  0  0  0
    5.9778    2.8086    0.0000 C   0  0  0  0  0  0  0  0  0  0  0  0
    6.5295    4.2595    0.0000 C   0  0  0  0  0  0  0  0  0  0  0  0
    5.3626    5.2364    0.0000 C   0  0  0  0  0  0  0  0  0  0  0  0
    3.9160    1.5230    0.0000 O   0  0  0  0  0  0  0  0  0  0  0  0
    2.6378    4.8201    0.0000 C   0  0  0  0  0  0  0  0  0  0  0  0
    8.0047    4.6381    0.0000 R#  0  0  0  0  0  0  0  0  0  0  0  0
    1.4711    3.8411    0.0000 O   0  0  0  0  0  0  0  0  0  0  0  0
    0.0000    4.2353    0.0000 R#  0  0  0  0  0  0  0  0  0  0  0  0
    3.9160    0.0000    0.0000 R#  0  0  0  0  0  0  0  0  0  0  0  0
    5.5275    3.6475    0.0000 C   0  0  0  0  0  0  0  0  0  0  0  0
  1  2  1  0
  2  3  1  0
  3  4  1  0
  4  5  1  0
  5  1  1  0
  2  6  1  6
  1  7  1  6
  4  8  1  0
  7  9  1  0
  9 10  1  0
  6 11  1  0
  1 12  1  0
  5 12  1  6
A    8
R3
A   10
R1
A   11
R2
M  END
>  <symbol>  (857)
Nmc

>  <m_abbr>  (857)
Nmc

>  <m_type>  (857)
rna

>  <m_subtype>  (857)
natural

>  <m_RgroupIdx>  (857)
9,10,7

>  <m_Rgroups>  (857)
H,H,OH

$$$$

     RDKit          2D

 12 11  0  0  0  0  0  0  0  0999 V2000
    3.9523    0.0026    0.0000 C   0  0  0  0  0  0  0  0  0  0  0  0
    5.2667    0.7615    0.0000 O   0  0  0  0  0  0  0  0  0  0  0  0
    6.5811    0.0026    0.0000 C   0  0  0  0  0  0  0  0  0  0  0  0
    7.8955    0.7615    0.0000 C   0  0  0  0  0  0  0  0  0  0  0  0
    9.2098    0.0026    0.0000 O   0  0  0  0  0  0  0  0  0  0  0  0
   10.5242    0.7615    0.0000 C   0  0  0  0  0  0  0  0  0  0  0  0
   11.8386    0.0026    0.0000 C   0  0  0  0  0  0  0  0  0  0  0  0
   13.1530    0.7615    0.0000 O   0  0  0  0  0  0  0  0  0  0  0  0
   14.4673    0.0026    0.0000 R#  0  0  0  0  0  0  0  0  0  0  0  0
    2.6379    0.7615    0.0000 C   0  0  0  0  0  0  0  0  0  0  0  0
    1.3190    0.0000    0.0000 O   0  0  0  0  0  0  0  0  0  0  0  0
    0.0000    0.7615    0.0000 R#  0  0  0  0  0  0  0  0  0  0  0  0
  1  2  1  0
  2  3  1  0
  3  4  1  0
  4  5  1  0
  5  6  1  0
  6  7  1  0
  7  8  1  0
  8  9  1  0
 10  1  1  0
 10 11  1  0
 11 12  1  0
A    9
R2
A   12
R1
M  END
>  <symbol>  (858)
Sp9

>  <m_abbr>  (858)
Sp9

>  <m_type>  (858)
rna

>  <m_subtype>  (858)
natural

>  <m_RgroupIdx>  (858)
11,8

>  <m_Rgroups>  (858)
H,H

$$$$

     RDKit          2D

 11 11  0  0  0  0  0  0  0  0999 V2000
    4.0257    4.2360    0.0000 C   0  0  0  0  0  0  0  0  0  0  0  0
    4.4300    2.7692    0.0000 C   0  0  0  0  0  0  0  0  0  0  0  0
    5.9665    2.7915    0.0000 C   0  0  0  0  0  0  0  0  0  0  0  0
    6.4840    4.2533    0.0000 C   0  0  0  0  0  0  0  0  0  0  0  0
    5.2976    5.2011    0.0000 O   0  0  0  0  0  0  0  0  0  0  0  0
    6.8124    1.5230    0.0000 O   0  0  0  0  0  0  0  0  0  0  0  0
    2.5847    4.7229    0.0000 C   0  0  0  0  0  0  0  0  0  0  0  0
    7.9483    4.6654    0.0000 R#  0  0  0  0  0  0  0  0  0  0  0  0
    1.4445    3.7132    0.0000 O   0  0  0  0  0  0  0  0  0  0  0  0
    0.0000    4.1957    0.0000 R#  0  0  0  0  0  0  0  0  0  0  0  0
    6.8124    0.0000    0.0000 R#  0  0  0  0  0  0  0  0  0  0  0  0
  1  2  1  0
  3  4  1  0
  4  5  1  0
  1  5  1  0
  3  6  1  6
  1  7  1  1
  4  8  1  1
  7  9  1  0
  3  2  1  0
  9 10  1  0
  6 11  1  0
A    8
R3
A   10
R1
A   11
R2
M  END
>  <symbol>  (859)
25d3r

>  <m_abbr>  (859)
25d3r

>  <m_type>  (859)
rna

>  <m_subtype>  (859)
natural

>  <m_RgroupIdx>  (859)
9,10,7

>  <m_Rgroups>  (859)
H,H,OH

$$$$

     RDKit          2D

 17 17  0  0  0  0  0  0  0  0999 V2000
    4.4548    6.2130    0.0000 O   0  0  0  0  0  0  0  0  0  0  0  0
    3.2280    5.3105    0.0000 C   0  0  0  0  0  0  0  0  0  0  0  0
    5.6922    5.3251    0.0000 C   0  0  0  0  0  0  0  0  0  0  0  0
    3.7072    3.8648    0.0000 C   0  0  0  0  0  0  0  0  0  0  0  0
    5.2301    3.8739    0.0000 C   0  0  0  0  0  0  0  0  0  0  0  0
    2.8193    2.6274    0.0000 O   0  0  0  0  0  0  0  0  0  0  0  0
    1.7768    5.7725    0.0000 C   0  0  0  0  0  0  0  0  0  0  0  0
    1.4513    7.2603    0.0000 O   0  0  0  0  0  0  0  0  0  0  0  0
    0.0000    7.7223    0.0000 R#  0  0  0  0  0  0  0  0  0  0  0  0
    7.1378    5.8043    0.0000 R#  0  0  0  0  0  0  0  0  0  0  0  0
    6.1326    2.6471    0.0000 O   0  0  0  0  0  0  0  0  0  0  0  0
    2.8193    1.0991    0.0000 R#  0  0  0  0  0  0  0  0  0  0  0  0
    7.6609    2.6471    0.0000 C   0  0  0  0  0  0  0  0  0  0  0  0
    8.4251    1.3236    0.0000 C   0  0  0  0  0  0  0  0  0  0  0  0
    9.9534    1.3236    0.0000 S   0  0  0  0  0  0  0  0  0  0  0  0
   10.7175    0.0000    0.0000 C   0  0  0  0  0  0  0  0  0  0  0  0
   10.7175    2.6471    0.0000 O   0  0  0  0  0  0  0  0  0  0  0  0
  1  2  1  0
  1  3  1  0
  2  4  1  0
  2  7  1  1
  3  5  1  0
  4  5  1  0
  4  6  1  6
  7  8  1  0
  8  9  1  0
  3 10  1  1
  5 11  1  6
  6 12  1  0
 11 13  1  0
 13 14  1  0
 14 15  1  0
 15 16  1  0
 15 17  2  0
A    9
R1
A   10
R3
A   12
R2
M  END
>  <symbol>  (860)
msoe2r

>  <m_abbr>  (860)
msoe2r

>  <m_type>  (860)
rna

>  <m_subtype>  (860)
natural

>  <m_RgroupIdx>  (860)
8,11,9

>  <m_Rgroups>  (860)
H,H,OH

$$$$

     RDKit          2D

 21 20  0  0  0  0  0  0  0  0999 V2000
    3.9660    0.0027    0.0000 C   0  0  0  0  0  0  0  0  0  0  0  0
    5.2850    0.7642    0.0000 O   0  0  0  0  0  0  0  0  0  0  0  0
    6.6039    0.0027    0.0000 C   0  0  0  0  0  0  0  0  0  0  0  0
    7.9229    0.7642    0.0000 C   0  0  0  0  0  0  0  0  0  0  0  0
    9.2419    0.0027    0.0000 O   0  0  0  0  0  0  0  0  0  0  0  0
   10.5608    0.7642    0.0000 C   0  0  0  0  0  0  0  0  0  0  0  0
   11.8798    0.0027    0.0000 C   0  0  0  0  0  0  0  0  0  0  0  0
   13.1987    0.7642    0.0000 O   0  0  0  0  0  0  0  0  0  0  0  0
   14.5177    0.0027    0.0000 C   0  0  0  0  0  0  0  0  0  0  0  0
   15.8366    0.7642    0.0000 C   0  0  0  0  0  0  0  0  0  0  0  0
   17.1556    0.0027    0.0000 O   0  0  0  0  0  0  0  0  0  0  0  0
   18.4746    0.7642    0.0000 C   0  0  0  0  0  0  0  0  0  0  0  0
   19.7935    0.0027    0.0000 C   0  0  0  0  0  0  0  0  0  0  0  0
   21.1125    0.7642    0.0000 O   0  0  0  0  0  0  0  0  0  0  0  0
   22.4314    0.0027    0.0000 C   0  0  0  0  0  0  0  0  0  0  0  0
   23.7504    0.7642    0.0000 C   0  0  0  0  0  0  0  0  0  0  0  0
   25.0693    0.0027    0.0000 O   0  0  0  0  0  0  0  0  0  0  0  0
   26.3883    0.7642    0.0000 R#  0  0  0  0  0  0  0  0  0  0  0  0
    2.6471    0.7642    0.0000 C   0  0  0  0  0  0  0  0  0  0  0  0
    1.3235    0.0000    0.0000 O   0  0  0  0  0  0  0  0  0  0  0  0
    0.0000    0.7642    0.0000 R#  0  0  0  0  0  0  0  0  0  0  0  0
  1  2  1  0
  2  3  1  0
  3  4  1  0
  4  5  1  0
  5  6  1  0
  6  7  1  0
  7  8  1  0
  8  9  1  0
  9 10  1  0
 10 11  1  0
 11 12  1  0
 12 13  1  0
 13 14  1  0
 14 15  1  0
 15 16  1  0
 16 17  1  0
 17 18  1  0
 19  1  1  0
 19 20  1  0
 20 21  1  0
A   18
R2
A   21
R1
M  END
>  <symbol>  (861)
Sp18

>  <m_abbr>  (861)
Sp18

>  <m_type>  (861)
rna

>  <m_subtype>  (861)
natural

>  <m_RgroupIdx>  (861)
20,17

>  <m_Rgroups>  (861)
H,H

$$$$

     RDKit          2D

 12 12  0  0  0  0  0  0  0  0999 V2000
    3.9168    4.1934    0.0000 C   0  0  0  0  0  0  0  0  0  0  0  0
    4.2872    2.7161    0.0000 C   0  0  0  0  0  0  0  0  0  0  0  0
    5.8256    2.7028    0.0000 C   0  0  0  0  0  0  0  0  0  0  0  0
    6.3774    4.1537    0.0000 C   0  0  0  0  0  0  0  0  0  0  0  0
    5.2105    5.1307    0.0000 O   0  0  0  0  0  0  0  0  0  0  0  0
    3.3407    1.5230    0.0000 O   0  0  0  0  0  0  0  0  0  0  0  0
    2.4857    4.7143    0.0000 C   0  0  0  0  0  0  0  0  0  0  0  0
    7.8526    4.5323    0.0000 R#  0  0  0  0  0  0  0  0  0  0  0  0
    1.3190    3.7353    0.0000 O   0  0  0  0  0  0  0  0  0  0  0  0
    0.0000    4.4968    0.0000 R#  0  0  0  0  0  0  0  0  0  0  0  0
    3.3407    0.0000    0.0000 R#  0  0  0  0  0  0  0  0  0  0  0  0
    6.6397    1.4163    0.0000 N   0  0  0  0  0  0  0  0  0  0  0  0
  1  2  1  0
  2  3  1  0
  3  4  1  0
  4  5  1  0
  5  1  1  0
  2  6  1  6
  3 12  1  6
  1  7  1  1
  4  8  1  1
  7  9  1  0
  9 10  1  0
  6 11  1  0
A    8
R3
A   10
R1
A   11
R2
M  END
>  <symbol>  (862)
n2r

>  <m_abbr>  (862)
n2r

>  <m_type>  (862)
rna

>  <m_subtype>  (862)
natural

>  <m_RgroupIdx>  (862)
9,10,7

>  <m_Rgroups>  (862)
H,H,OH

$$$$

     RDKit          2D

 15 14  0  0  0  0  0  0  0  0999 V2000
    1.3235    0.7641    0.0000 O   0  0  0  0  0  0  0  0  0  0  0  0
    2.6425    0.0026    0.0000 C   0  0  0  0  0  0  0  0  0  0  0  0
    3.9614    0.7641    0.0000 C   0  0  0  0  0  0  0  0  0  0  0  0
    5.2804    0.0026    0.0000 C   0  0  0  0  0  0  0  0  0  0  0  0
    6.5993    0.7641    0.0000 C   0  0  0  0  0  0  0  0  0  0  0  0
    7.9183    0.0026    0.0000 C   0  0  0  0  0  0  0  0  0  0  0  0
    9.2372    0.7641    0.0000 C   0  0  0  0  0  0  0  0  0  0  0  0
   10.5562    0.0026    0.0000 C   0  0  0  0  0  0  0  0  0  0  0  0
   11.8752    0.7641    0.0000 C   0  0  0  0  0  0  0  0  0  0  0  0
   13.1941    0.0026    0.0000 C   0  0  0  0  0  0  0  0  0  0  0  0
   14.5131    0.7641    0.0000 C   0  0  0  0  0  0  0  0  0  0  0  0
   15.8320    0.0026    0.0000 C   0  0  0  0  0  0  0  0  0  0  0  0
   17.1510    0.7641    0.0000 O   0  0  0  0  0  0  0  0  0  0  0  0
    0.0000    0.0000    0.0000 R#  0  0  0  0  0  0  0  0  0  0  0  0
   18.4699    0.0026    0.0000 R#  0  0  0  0  0  0  0  0  0  0  0  0
  3  2  1  0
  4  3  1  0
  5  4  1  0
  6  5  1  0
  7  6  1  0
  8  7  1  0
  9  8  1  0
 10  9  1  0
 11 10  1  0
 12 11  1  0
 13 12  1  0
  1 14  1  0
 13 15  1  0
  1  2  1  0
A   14
R1
A   15
R2
M  END
>  <symbol>  (863)
oC11o

>  <m_abbr>  (863)
oC11o

>  <m_type>  (863)
rna

>  <m_subtype>  (863)
natural

>  <m_RgroupIdx>  (863)
13,14

>  <m_Rgroups>  (863)
H,H

$$$$

     RDKit          2D

 11 10  0  0  0  0  0  0  0  0999 V2000
    1.3190    0.7615    0.0000 O   0  0  0  0  0  0  0  0  0  0  0  0
    2.6379    0.0000    0.0000 C   0  0  0  0  0  0  0  0  0  0  0  0
    3.9569    0.7615    0.0000 C   0  0  0  0  0  0  0  0  0  0  0  0
    5.2758    0.0000    0.0000 C   0  0  0  0  0  0  0  0  0  0  0  0
    6.5948    0.7615    0.0000 C   0  0  0  0  0  0  0  0  0  0  0  0
    7.9137    0.0000    0.0000 C   0  0  0  0  0  0  0  0  0  0  0  0
    9.2327    0.7615    0.0000 C   0  0  0  0  0  0  0  0  0  0  0  0
   10.5517    0.0000    0.0000 C   0  0  0  0  0  0  0  0  0  0  0  0
   11.8706    0.7615    0.0000 O   0  0  0  0  0  0  0  0  0  0  0  0
    0.0000    0.0000    0.0000 R#  0  0  0  0  0  0  0  0  0  0  0  0
   13.1896    0.0000    0.0000 R#  0  0  0  0  0  0  0  0  0  0  0  0
  3  2  1  0
  4  3  1  0
  5  4  1  0
  6  5  1  0
  7  6  1  0
  8  7  1  0
  9  8  1  0
  1 10  1  0
  9 11  1  0
  1  2  1  0
A   10
R1
A   11
R2
M  END
>  <symbol>  (864)
oC7o

>  <m_abbr>  (864)
oC7o

>  <m_type>  (864)
rna

>  <m_subtype>  (864)
natural

>  <m_RgroupIdx>  (864)
9,10

>  <m_Rgroups>  (864)
H,H

$$$$

     RDKit          2D

  9  8  0  0  0  0  0  0  0  0999 V2000
    1.3144    0.7589    0.0000 O   0  0  0  0  0  0  0  0  0  0  0  0
    2.6288    0.0000    0.0000 C   0  0  0  0  0  0  0  0  0  0  0  0
    3.9431    0.7589    0.0000 C   0  0  0  0  0  0  0  0  0  0  0  0
    5.2575    0.0000    0.0000 C   0  0  0  0  0  0  0  0  0  0  0  0
    6.5719    0.7589    0.0000 C   0  0  0  0  0  0  0  0  0  0  0  0
    7.8863    0.0000    0.0000 C   0  0  0  0  0  0  0  0  0  0  0  0
    9.2006    0.7589    0.0000 O   0  0  0  0  0  0  0  0  0  0  0  0
    0.0000    0.0000    0.0000 R#  0  0  0  0  0  0  0  0  0  0  0  0
   10.5150    0.0000    0.0000 R#  0  0  0  0  0  0  0  0  0  0  0  0
  3  2  1  0
  4  3  1  0
  5  4  1  0
  6  5  1  0
  7  6  1  0
  1  8  1  0
  7  9  1  0
  1  2  1  0
A    8
R1
A    9
R2
M  END
>  <symbol>  (865)
oC5o

>  <m_abbr>  (865)
oC5o

>  <m_type>  (865)
rna

>  <m_subtype>  (865)
natural

>  <m_RgroupIdx>  (865)
7,8

>  <m_Rgroups>  (865)
H,H

$$$$

     RDKit          2D

  8  7  0  0  0  0  0  0  0  0999 V2000
    1.3236    0.0000    0.0000 O   0  0  0  0  0  0  0  0  0  0  0  0
    2.6425    0.7615    0.0000 C   0  0  0  0  0  0  0  0  0  0  0  0
    3.9615    0.0000    0.0000 C   0  0  0  0  0  0  0  0  0  0  0  0
    5.2804    0.7615    0.0000 C   0  0  0  0  0  0  0  0  0  0  0  0
    6.5994    0.0000    0.0000 C   0  0  0  0  0  0  0  0  0  0  0  0
    7.9183    0.7615    0.0000 O   0  0  0  0  0  0  0  0  0  0  0  0
    0.0000    0.7641    0.0000 R#  0  0  0  0  0  0  0  0  0  0  0  0
    9.2373    0.0000    0.0000 R#  0  0  0  0  0  0  0  0  0  0  0  0
  3  2  1  0
  4  3  1  0
  5  4  1  0
  6  5  1  0
  1  7  1  0
  6  8  1  0
  1  2  1  0
A    7
R1
A    8
R2
M  END
>  <symbol>  (866)
oC4o

>  <m_abbr>  (866)
oC4o

>  <m_type>  (866)
rna

>  <m_subtype>  (866)
natural

>  <m_RgroupIdx>  (866)
6,7

>  <m_Rgroups>  (866)
H,H

$$$$

     RDKit          2D

 10  9  0  0  0  0  0  0  0  0999 V2000
    3.9168    4.1935    0.0000 C   0  0  0  0  0  0  0  0  0  0  0  0
    4.2872    2.7162    0.0000 C   0  0  0  0  0  0  0  0  0  0  0  0
    6.3773    4.1538    0.0000 C   0  0  0  0  0  0  0  0  0  0  0  0
    5.2104    5.1307    0.0000 O   0  0  0  0  0  0  0  0  0  0  0  0
    3.3407    1.5230    0.0000 O   0  0  0  0  0  0  0  0  0  0  0  0
    2.4856    4.7144    0.0000 C   0  0  0  0  0  0  0  0  0  0  0  0
    7.8525    4.5324    0.0000 R#  0  0  0  0  0  0  0  0  0  0  0  0
    1.3189    3.7354    0.0000 O   0  0  0  0  0  0  0  0  0  0  0  0
    0.0000    4.4969    0.0000 R#  0  0  0  0  0  0  0  0  0  0  0  0
    3.3407    0.0000    0.0000 R#  0  0  0  0  0  0  0  0  0  0  0  0
  1  2  1  0
  3  4  1  0
  4  1  1  0
  2  5  1  0
  1  6  1  0
  3  7  1  0
  6  8  1  0
  8  9  1  0
  5 10  1  0
A    7
R3
A    9
R1
A   10
R2
M  END
>  <symbol>  (867)
dhp

>  <m_abbr>  (867)
dhp

>  <m_type>  (867)
rna

>  <m_subtype>  (867)
natural

>  <m_RgroupIdx>  (867)
8,9,6

>  <m_Rgroups>  (867)
H,H,OH

$$$$

     RDKit          2D

 12 13  0  0  0  0  0  0  0  0999 V2000
    3.9168    4.1935    0.0000 C   0  0  0  0  0  0  0  0  0  0  0  0
    4.2872    2.7162    0.0000 C   0  0  0  0  0  0  0  0  0  0  0  0
    5.8256    2.7028    0.0000 C   0  0  0  0  0  0  0  0  0  0  0  0
    6.3774    4.1538    0.0000 C   0  0  0  0  0  0  0  0  0  0  0  0
    5.2105    5.1307    0.0000 C   0  0  0  0  0  0  0  0  0  0  0  0
    3.3407    1.5230    0.0000 O   0  0  0  0  0  0  0  0  0  0  0  0
    2.4856    4.7143    0.0000 C   0  0  0  0  0  0  0  0  0  0  0  0
    7.8526    4.5324    0.0000 R#  0  0  0  0  0  0  0  0  0  0  0  0
    1.3190    3.7354    0.0000 O   0  0  0  0  0  0  0  0  0  0  0  0
    0.0000    4.4969    0.0000 R#  0  0  0  0  0  0  0  0  0  0  0  0
    3.3407    0.0000    0.0000 R#  0  0  0  0  0  0  0  0  0  0  0  0
    5.2105    3.6077    0.0000 C   0  0  0  0  0  0  0  0  0  0  0  0
  1  2  1  0
  2  3  1  0
  3  4  1  0
  4  5  1  0
  5  1  1  0
  2  6  1  6
  1  7  1  1
  4  8  1  1
  7  9  1  0
  9 10  1  0
  6 11  1  0
  5 12  1  6
  4 12  1  0
A    8
R3
A   10
R1
A   11
R2
M  END
>  <symbol>  (868)
Smc

>  <m_abbr>  (868)
Smc

>  <m_type>  (868)
rna

>  <m_subtype>  (868)
natural

>  <m_RgroupIdx>  (868)
9,10,7

>  <m_Rgroups>  (868)
H,H,OH

$$$$

     RDKit          2D

  7  6  0  0  0  0  0  0  0  0999 V2000
    1.3235    0.7642    0.0000 O   0  0  0  0  0  0  0  0  0  0  0  0
    2.6425    0.0027    0.0000 C   0  0  0  0  0  0  0  0  0  0  0  0
    3.9614    0.7642    0.0000 C   0  0  0  0  0  0  0  0  0  0  0  0
    5.2804    0.0027    0.0000 C   0  0  0  0  0  0  0  0  0  0  0  0
    6.5993    0.7642    0.0000 O   0  0  0  0  0  0  0  0  0  0  0  0
    0.0000    0.0000    0.0000 R#  0  0  0  0  0  0  0  0  0  0  0  0
    7.9183    0.0027    0.0000 R#  0  0  0  0  0  0  0  0  0  0  0  0
  3  2  1  0
  4  3  1  0
  5  4  1  0
  1  6  1  0
  5  7  1  0
  1  2  1  0
A    6
R1
A    7
R2
M  END
>  <symbol>  (869)
SpC3

>  <m_abbr>  (869)
SpC3

>  <m_type>  (869)
rna

>  <m_subtype>  (869)
natural

>  <m_RgroupIdx>  (869)
5,6

>  <m_Rgroups>  (869)
H,H

$$$$

     RDKit          2D

 10  9  0  0  0  0  0  0  0  0999 V2000
    7.9321    0.0053    0.0000 C   0  0  0  0  0  0  0  0  0  0  0  0
    9.2511    0.7668    0.0000 C   0  0  0  0  0  0  0  0  0  0  0  0
   10.5701    0.0053    0.0000 O   0  0  0  0  0  0  0  0  0  0  0  0
   11.8890    0.7668    0.0000 R#  0  0  0  0  0  0  0  0  0  0  0  0
    1.3236    0.7641    0.0000 O   0  0  0  0  0  0  0  0  0  0  0  0
    2.6425    0.0026    0.0000 C   0  0  0  0  0  0  0  0  0  0  0  0
    0.0000    0.0000    0.0000 R#  0  0  0  0  0  0  0  0  0  0  0  0
    3.9661    0.7668    0.0000 C   0  0  0  0  0  0  0  0  0  0  0  0
    5.2896    0.0026    0.0000 C   0  0  0  0  0  0  0  0  0  0  0  0
    6.6132    0.7668    0.0000 C   0  0  0  0  0  0  0  0  0  0  0  0
  1 10  1  0
  2  1  1  0
  3  2  1  0
  3  4  1  0
  5  7  1  0
  5  6  1  0
  6  8  1  0
  8  9  1  0
  9 10  1  0
A    4
R2
A    7
R1
M  END
>  <symbol>  (870)
oC6o

>  <m_abbr>  (870)
oC6o

>  <m_type>  (870)
rna

>  <m_subtype>  (870)
natural

>  <m_RgroupIdx>  (870)
6,3

>  <m_Rgroups>  (870)
H,H

$$$$

     RDKit          2D

 13 13  0  0  0  0  0  0  0  0999 V2000
    3.9168    4.1935    0.0000 C   0  0  0  0  0  0  0  0  0  0  0  0
    4.2872    2.7162    0.0000 C   0  0  0  0  0  0  0  0  0  0  0  0
    5.8256    2.7028    0.0000 C   0  0  0  0  0  0  0  0  0  0  0  0
    6.3774    4.1538    0.0000 C   0  0  0  0  0  0  0  0  0  0  0  0
    5.2105    5.1307    0.0000 O   0  0  0  0  0  0  0  0  0  0  0  0
    3.3407    1.5230    0.0000 O   0  0  0  0  0  0  0  0  0  0  0  0
    2.4857    4.7144    0.0000 C   0  0  0  0  0  0  0  0  0  0  0  0
    7.8526    4.5324    0.0000 R#  0  0  0  0  0  0  0  0  0  0  0  0
    1.3190    3.7354    0.0000 O   0  0  0  0  0  0  0  0  0  0  0  0
    0.0000    4.4969    0.0000 R#  0  0  0  0  0  0  0  0  0  0  0  0
    3.3407    0.0000    0.0000 R#  0  0  0  0  0  0  0  0  0  0  0  0
    6.6397    1.4164    0.0000 O   0  0  0  0  0  0  0  0  0  0  0  0
    7.2967    3.0970    0.0000 C   0  0  0  0  0  0  0  0  0  0  0  0
  1  2  1  0
  2  3  1  0
  3  4  1  0
  4  5  1  0
  5  1  1  0
  2  6  1  6
  3 12  1  0
  1  7  1  1
  4  8  1  1
  7  9  1  0
  9 10  1  0
  6 11  1  0
  3 13  1  1
A    8
R3
A   10
R1
A   11
R2
M  END
>  <symbol>  (871)
Bcm2r

>  <m_abbr>  (871)
Bcm2r

>  <m_type>  (871)
rna

>  <m_subtype>  (871)
natural

>  <m_RgroupIdx>  (871)
9,10,7

>  <m_Rgroups>  (871)
H,H,OH

$$$$

     RDKit          2D

 55 59  0  0  0  0  0  0  0  0999 V2000
    7.0073   13.3207    0.0000 C   0  0  0  0  0  0  0  0  0  0  0  0
    8.4970   13.0041    0.0000 C   0  0  0  0  0  0  0  0  0  0  0  0
    8.9677   11.5556    0.0000 N   0  0  0  0  0  0  0  0  0  0  0  0
   10.4574   11.2390    0.0000 C   0  0  0  0  0  0  0  0  0  0  0  0
   10.9281    9.7905    0.0000 C   0  0  0  0  0  0  0  0  0  0  0  0
   12.4178    9.4739    0.0000 C   0  0  0  0  0  0  0  0  0  0  0  0
    9.5161   14.1359    0.0000 O   0  0  0  0  0  0  0  0  0  0  0  0
   12.8885    8.0255    0.0000 C   0  0  0  0  0  0  0  0  0  0  0  0
   14.3782    7.7088    0.0000 N   0  0  0  0  0  0  0  0  0  0  0  0
   14.8488    6.2604    0.0000 C   0  0  0  0  0  0  0  0  0  0  0  0
   13.8298    5.1286    0.0000 O   0  0  0  0  0  0  0  0  0  0  0  0
   16.3386    5.9438    0.0000 C   0  0  0  0  0  0  0  0  0  0  0  0
   18.2989    4.1787    0.0000 C   0  0  0  0  0  0  0  0  0  0  0  0
   19.3180    5.3106    0.0000 C   0  0  0  0  0  0  0  0  0  0  0  0
   20.8076    4.9941    0.0000 C   0  0  0  0  0  0  0  0  0  0  0  0
   18.7696    2.7304    0.0000 C   0  0  0  0  0  0  0  0  0  0  0  0
   20.2593    2.4137    0.0000 C   0  0  0  0  0  0  0  0  0  0  0  0
   20.7300    0.9653    0.0000 C   0  0  0  0  0  0  0  0  0  0  0  0
   22.2197    0.6488    0.0000 C   0  0  0  0  0  0  0  0  0  0  0  0
   23.2387    1.7806    0.0000 C   0  0  0  0  0  0  0  0  0  0  0  0
   24.7285    1.4640    0.0000 C   0  0  0  0  0  0  0  0  0  0  0  0
   25.4901    0.1451    0.0000 C   0  0  0  0  0  0  0  0  0  0  0  0
   26.9798    0.4617    0.0000 C   0  0  0  0  0  0  0  0  0  0  0  0
   27.1389    1.9765    0.0000 C   0  0  0  0  0  0  0  0  0  0  0  0
   28.4579    2.7380    0.0000 C   0  0  0  0  0  0  0  0  0  0  0  0
   29.7769    1.9765    0.0000 C   0  0  0  0  0  0  0  0  0  0  0  0
   31.0958    2.7380    0.0000 C   0  0  0  0  0  0  0  0  0  0  0  0
   32.4148    1.9765    0.0000 C   0  0  0  0  0  0  0  0  0  0  0  0
   33.7337    2.7380    0.0000 C   0  0  0  0  0  0  0  0  0  0  0  0
   35.0527    1.9765    0.0000 C   0  0  0  0  0  0  0  0  0  0  0  0
   33.7337    4.2611    0.0000 C   0  0  0  0  0  0  0  0  0  0  0  0
   28.4579    4.2611    0.0000 C   0  0  0  0  0  0  0  0  0  0  0  0
   25.7475    2.5958    0.0000 C   0  0  0  0  0  0  0  0  0  0  0  0
   26.8793    3.6150    0.0000 C   0  0  0  0  0  0  0  0  0  0  0  0
   25.2768    4.0443    0.0000 C   0  0  0  0  0  0  0  0  0  0  0  0
   23.7872    4.3608    0.0000 C   0  0  0  0  0  0  0  0  0  0  0  0
   22.7681    3.2290    0.0000 C   0  0  0  0  0  0  0  0  0  0  0  0
   21.2784    3.5456    0.0000 C   0  0  0  0  0  0  0  0  0  0  0  0
   21.8488    4.9577    0.0000 C   0  0  0  0  0  0  0  0  0  0  0  0
   16.8092    4.4953    0.0000 O   0  0  0  0  0  0  0  0  0  0  0  0
   22.8212    4.7511    0.0000 H   0  0  0  0  0  0  0  0  0  0  0  0
   23.1856    0.2585    0.0000 H   0  0  0  0  0  0  0  0  0  0  0  0
   24.3088    0.0000    0.0000 H   0  0  0  0  0  0  0  0  0  0  0  0
    4.1099   16.0055    0.0000 C   0  0  0  0  0  0  0  0  0  0  0  0
    5.6382   16.0055    0.0000 C   0  0  0  0  0  0  0  0  0  0  0  0
    6.1106   17.4589    0.0000 C   0  0  0  0  0  0  0  0  0  0  0  0
    4.8740   18.3572    0.0000 O   0  0  0  0  0  0  0  0  0  0  0  0
    3.6377   17.4589    0.0000 C   0  0  0  0  0  0  0  0  0  0  0  0
    7.1911   18.5397    0.0000 R#  0  0  0  0  0  0  0  0  0  0  0  0
    2.5569   18.5397    0.0000 C   0  0  0  0  0  0  0  0  0  0  0  0
    3.2116   14.7691    0.0000 O   0  0  0  0  0  0  0  0  0  0  0  0
    6.5366   14.7691    0.0000 O   0  0  0  0  0  0  0  0  0  0  0  0
    1.0807   18.1441    0.0000 O   0  0  0  0  0  0  0  0  0  0  0  0
    3.2116   13.2408    0.0000 R#  0  0  0  0  0  0  0  0  0  0  0  0
    0.0000   19.2248    0.0000 R#  0  0  0  0  0  0  0  0  0  0  0  0
 52  1  1  0
  1  2  1  0
  2  3  1  0
  3  4  1  0
  4  5  1  0
  5  6  1  0
  2  7  2  0
  6  8  1  0
  8  9  1  0
  9 10  1  0
 10 11  2  0
 10 12  1  0
 13 14  1  0
 14 15  1  0
 13 16  1  0
 16 17  1  0
 17 18  2  0
 18 19  1  0
 19 20  1  0
 20 21  1  0
 21 22  1  0
 22 23  1  0
 24 23  1  1
 24 25  1  0
 25 26  1  0
 26 27  1  0
 27 28  1  0
 28 29  1  0
 29 30  1  0
 29 31  1  0
 25 32  1  6
 24 33  1  0
 21 33  1  0
 33 34  1  1
 33 35  1  0
 35 36  1  0
 36 37  1  0
 20 37  1  0
 37 38  1  0
 15 38  1  0
 17 38  1  0
 38 39  1  1
 13 40  1  0
 37 41  1  6
 20 42  1  1
 21 43  1  6
 12 40  1  0
 44 45  1  0
 45 46  1  0
 46 47  1  0
 47 48  1  0
 48 44  1  0
 46 49  1  1
 48 50  1  1
 44 51  1  6
 45 52  1  6
 50 53  1  0
 51 54  1  0
 53 55  1  0
A   49
R3
A   54
R1
A   55
R2
M  END
>  <symbol>  (872)
cholmcaba2r

>  <m_abbr>  (872)
cholmcaba2r

>  <m_type>  (872)
rna

>  <m_subtype>  (872)
natural

>  <m_RgroupIdx>  (872)
53,54,48

>  <m_Rgroups>  (872)
H,H,OH

$$$$

     RDKit          2D

 38 38  0  0  0  0  0  0  0  0999 V2000
    4.0960   13.6238    0.0000 C   0  0  0  0  0  0  0  0  0  0  0  0
    5.6191   13.6238    0.0000 C   0  0  0  0  0  0  0  0  0  0  0  0
    6.0850   15.0572    0.0000 C   0  0  0  0  0  0  0  0  0  0  0  0
    4.8576   15.9677    0.0000 O   0  0  0  0  0  0  0  0  0  0  0  0
    3.6254   15.0724    0.0000 C   0  0  0  0  0  0  0  0  0  0  0  0
    7.1668   16.1495    0.0000 R#  0  0  0  0  0  0  0  0  0  0  0  0
    2.5483   16.1495    0.0000 C   0  0  0  0  0  0  0  0  0  0  0  0
    3.2007   12.3917    0.0000 O   0  0  0  0  0  0  0  0  0  0  0  0
    6.5146   12.3917    0.0000 O   0  0  0  0  0  0  0  0  0  0  0  0
    8.0292   12.5508    0.0000 C   0  0  0  0  0  0  0  0  0  0  0  0
    8.9247   11.3184    0.0000 C   0  0  0  0  0  0  0  0  0  0  0  0
   10.4393   11.4778    0.0000 N   0  0  0  0  0  0  0  0  0  0  0  0
   11.3348   10.2454    0.0000 C   0  0  0  0  0  0  0  0  0  0  0  0
   12.8496   10.4047    0.0000 C   0  0  0  0  0  0  0  0  0  0  0  0
   13.7448    9.1724    0.0000 C   0  0  0  0  0  0  0  0  0  0  0  0
   15.2542    9.3309    0.0000 C   0  0  0  0  0  0  0  0  0  0  0  0
    8.3051    9.9271    0.0000 O   0  0  0  0  0  0  0  0  0  0  0  0
    1.0770   15.7553    0.0000 O   0  0  0  0  0  0  0  0  0  0  0  0
    3.2007   10.8685    0.0000 R#  0  0  0  0  0  0  0  0  0  0  0  0
    0.0000   16.8323    0.0000 R#  0  0  0  0  0  0  0  0  0  0  0  0
   16.1463    8.1030    0.0000 N   0  0  0  0  0  0  0  0  0  0  0  0
   17.6557    8.2615    0.0000 C   0  0  0  0  0  0  0  0  0  0  0  0
   18.2731    9.6480    0.0000 O   0  0  0  0  0  0  0  0  0  0  0  0
   18.5477    7.0336    0.0000 C   0  0  0  0  0  0  0  0  0  0  0  0
   20.0571    7.1922    0.0000 C   0  0  0  0  0  0  0  0  0  0  0  0
   20.9491    5.9643    0.0000 C   0  0  0  0  0  0  0  0  0  0  0  0
   22.4585    6.1228    0.0000 C   0  0  0  0  0  0  0  0  0  0  0  0
   23.3505    4.8949    0.0000 C   0  0  0  0  0  0  0  0  0  0  0  0
   24.8599    5.0534    0.0000 C   0  0  0  0  0  0  0  0  0  0  0  0
   25.7519    3.8255    0.0000 C   0  0  0  0  0  0  0  0  0  0  0  0
   27.2613    3.9841    0.0000 C   0  0  0  0  0  0  0  0  0  0  0  0
   28.6478    3.3667    0.0000 C   0  0  0  0  0  0  0  0  0  0  0  0
   29.5398    2.1387    0.0000 C   0  0  0  0  0  0  0  0  0  0  0  0
   31.0492    2.2973    0.0000 C   0  0  0  0  0  0  0  0  0  0  0  0
   31.9412    1.0694    0.0000 C   0  0  0  0  0  0  0  0  0  0  0  0
   33.4506    1.2279    0.0000 C   0  0  0  0  0  0  0  0  0  0  0  0
   34.3427    0.0000    0.0000 C   0  0  0  0  0  0  0  0  0  0  0  0
   35.8521    0.1586    0.0000 C   0  0  0  0  0  0  0  0  0  0  0  0
  1  2  1  0
  2  3  1  0
  3  4  1  0
  4  5  1  0
  5  1  1  0
  3  6  1  1
  5  7  1  1
  1  8  1  6
  2  9  1  6
  9 10  1  0
 10 11  1  0
 11 12  1  0
 12 13  1  0
 13 14  1  0
 14 15  1  0
 15 16  1  0
 16 21  1  0
 11 17  2  0
  7 18  1  0
  8 19  1  0
 18 20  1  0
 21 22  1  0
 22 23  2  0
 22 24  1  0
 24 25  1  0
 25 26  1  0
 26 27  1  0
 27 28  1  0
 28 29  1  0
 29 30  1  0
 30 31  1  0
 31 32  2  0
 32 33  1  0
 33 34  1  0
 34 35  1  0
 35 36  1  0
 36 37  1  0
 37 38  1  0
A    6
R3
A   19
R1
A   20
R2
M  END
>  <symbol>  (873)
ZC16ene9oylaba2r

>  <m_abbr>  (873)
ZC16ene9oylaba2r

>  <m_type>  (873)
rna

>  <m_subtype>  (873)
natural

>  <m_RgroupIdx>  (873)
18,19,5

>  <m_Rgroups>  (873)
H,H,OH

$$$$

     RDKit          2D

 38 38  0  0  0  0  0  0  0  0999 V2000
    4.0960   14.0844    0.0000 C   0  0  0  0  0  0  0  0  0  0  0  0
    5.6191   14.0844    0.0000 C   0  0  0  0  0  0  0  0  0  0  0  0
    6.0883   15.5279    0.0000 C   0  0  0  0  0  0  0  0  0  0  0  0
    4.8575   16.4281    0.0000 O   0  0  0  0  0  0  0  0  0  0  0  0
    3.6254   15.5329    0.0000 C   0  0  0  0  0  0  0  0  0  0  0  0
    7.1668   16.6100    0.0000 R#  0  0  0  0  0  0  0  0  0  0  0  0
    2.5483   16.6100    0.0000 C   0  0  0  0  0  0  0  0  0  0  0  0
    3.2007   12.8522    0.0000 O   0  0  0  0  0  0  0  0  0  0  0  0
    6.5145   12.8522    0.0000 O   0  0  0  0  0  0  0  0  0  0  0  0
    8.0292   13.0113    0.0000 C   0  0  0  0  0  0  0  0  0  0  0  0
    8.9246   11.7790    0.0000 C   0  0  0  0  0  0  0  0  0  0  0  0
   10.4392   11.9383    0.0000 N   0  0  0  0  0  0  0  0  0  0  0  0
   11.3347   10.7060    0.0000 C   0  0  0  0  0  0  0  0  0  0  0  0
   12.8495   10.8653    0.0000 C   0  0  0  0  0  0  0  0  0  0  0  0
   13.7447    9.6329    0.0000 C   0  0  0  0  0  0  0  0  0  0  0  0
   15.2596    9.7923    0.0000 C   0  0  0  0  0  0  0  0  0  0  0  0
   16.1548    8.5599    0.0000 N   0  0  0  0  0  0  0  0  0  0  0  0
    8.3050   10.3877    0.0000 O   0  0  0  0  0  0  0  0  0  0  0  0
   17.6643    8.7185    0.0000 C   0  0  0  0  0  0  0  0  0  0  0  0
   18.5564    7.4904    0.0000 C   0  0  0  0  0  0  0  0  0  0  0  0
   18.2818   10.1050    0.0000 O   0  0  0  0  0  0  0  0  0  0  0  0
    1.0770   16.2158    0.0000 O   0  0  0  0  0  0  0  0  0  0  0  0
    3.2007   11.3290    0.0000 R#  0  0  0  0  0  0  0  0  0  0  0  0
    0.0000   17.2928    0.0000 R#  0  0  0  0  0  0  0  0  0  0  0  0
   20.0660    7.6490    0.0000 C   0  0  0  0  0  0  0  0  0  0  0  0
   20.9581    6.4210    0.0000 C   0  0  0  0  0  0  0  0  0  0  0  0
   22.4676    6.5795    0.0000 C   0  0  0  0  0  0  0  0  0  0  0  0
   23.3597    5.3515    0.0000 C   0  0  0  0  0  0  0  0  0  0  0  0
   24.8693    5.5101    0.0000 C   0  0  0  0  0  0  0  0  0  0  0  0
   25.7614    4.2820    0.0000 C   0  0  0  0  0  0  0  0  0  0  0  0
   27.2709    4.4406    0.0000 C   0  0  0  0  0  0  0  0  0  0  0  0
   28.1630    3.2126    0.0000 C   0  0  0  0  0  0  0  0  0  0  0  0
   29.6725    3.3711    0.0000 C   0  0  0  0  0  0  0  0  0  0  0  0
   30.5646    2.1431    0.0000 C   0  0  0  0  0  0  0  0  0  0  0  0
   32.0742    2.3016    0.0000 C   0  0  0  0  0  0  0  0  0  0  0  0
   32.9663    1.0736    0.0000 C   0  0  0  0  0  0  0  0  0  0  0  0
   34.4758    1.2322    0.0000 C   0  0  0  0  0  0  0  0  0  0  0  0
   35.3710    0.0000    0.0000 C   0  0  0  0  0  0  0  0  0  0  0  0
  1  2  1  0
  2  3  1  0
  3  4  1  0
  4  5  1  0
  5  1  1  0
  3  6  1  1
  5  7  1  1
  1  8  1  6
  2  9  1  6
  9 10  1  0
 10 11  1  0
 11 12  1  0
 12 13  1  0
 13 14  1  0
 14 15  1  0
 15 16  1  0
 16 17  1  0
 11 18  2  0
 17 19  1  0
 19 20  1  0
 19 21  2  0
  7 22  1  0
  8 23  1  0
 22 24  1  0
 20 25  1  0
 25 26  1  0
 26 27  1  0
 27 28  1  0
 28 29  1  0
 29 30  1  0
 30 31  1  0
 31 32  1  0
 32 33  1  0
 33 34  1  0
 34 35  1  0
 35 36  1  0
 36 37  1  0
 37 38  1  0
A    6
R3
A   23
R1
A   24
R2
M  END
>  <symbol>  (874)
C16aba2r

>  <m_abbr>  (874)
C16aba2r

>  <m_type>  (874)
rna

>  <m_subtype>  (874)
natural

>  <m_RgroupIdx>  (874)
22,23,5

>  <m_Rgroups>  (874)
H,H,OH

$$$$

     RDKit          2D

 12 12  0  0  0  0  0  0  0  0999 V2000
    3.9168    4.1934    0.0000 C   0  0  0  0  0  0  0  0  0  0  0  0
    4.2872    2.7162    0.0000 C   0  0  0  0  0  0  0  0  0  0  0  0
    5.8255    2.7028    0.0000 C   0  0  0  0  0  0  0  0  0  0  0  0
    6.3773    4.1538    0.0000 C   0  0  0  0  0  0  0  0  0  0  0  0
    5.2104    5.1307    0.0000 O   0  0  0  0  0  0  0  0  0  0  0  0
    3.3407    1.5230    0.0000 O   0  0  0  0  0  0  0  0  0  0  0  0
    2.4856    4.7143    0.0000 C   0  0  0  0  0  0  0  0  0  0  0  0
    7.8525    4.5324    0.0000 R#  0  0  0  0  0  0  0  0  0  0  0  0
    1.3189    3.7354    0.0000 O   0  0  0  0  0  0  0  0  0  0  0  0
    0.0000    4.4969    0.0000 R#  0  0  0  0  0  0  0  0  0  0  0  0
    3.3407    0.0000    0.0000 R#  0  0  0  0  0  0  0  0  0  0  0  0
    2.2211    6.2142    0.0000 C   0  0  0  0  0  0  0  0  0  0  0  0
  1  2  1  0
  2  3  1  0
  3  4  1  0
  4  5  1  0
  1  5  1  0
  2  6  1  6
  1  7  1  1
  4  8  1  1
  7  9  1  0
  9 10  1  0
  6 11  1  0
  7 12  1  0
A    8
R3
A   10
R1
A   11
R2
M  END
>  <symbol>  (875)
m5d

>  <m_abbr>  (875)
m5d

>  <m_type>  (875)
rna

>  <m_subtype>  (875)
natural

>  <m_RgroupIdx>  (875)
9,10,7

>  <m_Rgroups>  (875)
H,H,OH

$$$$

     RDKit          2D

 34 34  0  0  0  0  0  0  0  0999 V2000
    4.0959   11.9413    0.0000 C   0  0  0  0  0  0  0  0  0  0  0  0
    5.6191   11.9413    0.0000 C   0  0  0  0  0  0  0  0  0  0  0  0
    6.0882   13.3848    0.0000 C   0  0  0  0  0  0  0  0  0  0  0  0
    4.8575   14.2851    0.0000 O   0  0  0  0  0  0  0  0  0  0  0  0
    3.6253   13.3898    0.0000 C   0  0  0  0  0  0  0  0  0  0  0  0
    7.1668   14.4669    0.0000 R#  0  0  0  0  0  0  0  0  0  0  0  0
    2.5482   14.4669    0.0000 C   0  0  0  0  0  0  0  0  0  0  0  0
    3.2007   10.7091    0.0000 O   0  0  0  0  0  0  0  0  0  0  0  0
    6.5145   10.7091    0.0000 O   0  0  0  0  0  0  0  0  0  0  0  0
    8.0291   10.8683    0.0000 C   0  0  0  0  0  0  0  0  0  0  0  0
    8.9246    9.6359    0.0000 C   0  0  0  0  0  0  0  0  0  0  0  0
   10.4392    9.7952    0.0000 N   0  0  0  0  0  0  0  0  0  0  0  0
   11.3346    8.5629    0.0000 C   0  0  0  0  0  0  0  0  0  0  0  0
   12.8495    8.7222    0.0000 C   0  0  0  0  0  0  0  0  0  0  0  0
   13.7447    7.4899    0.0000 C   0  0  0  0  0  0  0  0  0  0  0  0
   15.2595    7.6492    0.0000 C   0  0  0  0  0  0  0  0  0  0  0  0
   16.1547    6.4168    0.0000 N   0  0  0  0  0  0  0  0  0  0  0  0
    8.3050    8.2446    0.0000 O   0  0  0  0  0  0  0  0  0  0  0  0
   17.6643    6.5754    0.0000 C   0  0  0  0  0  0  0  0  0  0  0  0
   18.5564    5.3474    0.0000 C   0  0  0  0  0  0  0  0  0  0  0  0
   18.2817    7.9620    0.0000 O   0  0  0  0  0  0  0  0  0  0  0  0
    1.0770   14.0727    0.0000 O   0  0  0  0  0  0  0  0  0  0  0  0
    3.2007    9.1860    0.0000 R#  0  0  0  0  0  0  0  0  0  0  0  0
    0.0000   15.1497    0.0000 R#  0  0  0  0  0  0  0  0  0  0  0  0
   20.0659    5.5059    0.0000 C   0  0  0  0  0  0  0  0  0  0  0  0
   20.9580    4.2779    0.0000 C   0  0  0  0  0  0  0  0  0  0  0  0
   22.4676    4.4365    0.0000 C   0  0  0  0  0  0  0  0  0  0  0  0
   23.3597    3.2084    0.0000 C   0  0  0  0  0  0  0  0  0  0  0  0
   24.8692    3.3670    0.0000 C   0  0  0  0  0  0  0  0  0  0  0  0
   25.7613    2.1390    0.0000 C   0  0  0  0  0  0  0  0  0  0  0  0
   27.2709    2.2975    0.0000 C   0  0  0  0  0  0  0  0  0  0  0  0
   28.1630    1.0695    0.0000 C   0  0  0  0  0  0  0  0  0  0  0  0
   29.6725    1.2281    0.0000 C   0  0  0  0  0  0  0  0  0  0  0  0
   30.5646    0.0000    0.0000 C   0  0  0  0  0  0  0  0  0  0  0  0
  1  2  1  0
  2  3  1  0
  3  4  1  0
  4  5  1  0
  5  1  1  0
  3  6  1  1
  5  7  1  1
  1  8  1  6
  2  9  1  6
  9 10  1  0
 10 11  1  0
 11 12  1  0
 12 13  1  0
 13 14  1  0
 14 15  1  0
 15 16  1  0
 16 17  1  0
 11 18  2  0
 17 19  1  0
 19 20  1  0
 19 21  2  0
  7 22  1  0
  8 23  1  0
 22 24  1  0
 20 25  1  0
 25 26  1  0
 26 27  1  0
 27 28  1  0
 28 29  1  0
 29 30  1  0
 30 31  1  0
 31 32  1  0
 32 33  1  0
 33 34  1  0
A    6
R3
A   23
R1
A   24
R2
M  END
>  <symbol>  (876)
C12aba2r

>  <m_abbr>  (876)
C12aba2r

>  <m_type>  (876)
rna

>  <m_subtype>  (876)
natural

>  <m_RgroupIdx>  (876)
22,23,5

>  <m_Rgroups>  (876)
H,H,OH

$$$$

     RDKit          2D

 13 13  0  0  0  0  0  0  0  0999 V2000
    4.0293    4.2012    0.0000 C   0  0  0  0  0  0  0  0  0  0  0  0
    4.4330    2.7485    0.0000 C   0  0  0  0  0  0  0  0  0  0  0  0
    5.9558    2.7740    0.0000 C   0  0  0  0  0  0  0  0  0  0  0  0
    6.4654    4.2239    0.0000 C   0  0  0  0  0  0  0  0  0  0  0  0
    5.2860    5.1613    0.0000 S   0  0  0  0  0  0  0  0  0  0  0  0
    3.5217    1.5283    0.0000 O   0  0  0  0  0  0  0  0  0  0  0  0
    2.5853    4.6856    0.0000 C   0  0  0  0  0  0  0  0  0  0  0  0
    7.9288    4.6457    0.0000 R#  0  0  0  0  0  0  0  0  0  0  0  0
    1.4439    3.6773    0.0000 O   0  0  0  0  0  0  0  0  0  0  0  0
    0.0000    4.1616    0.0000 R#  0  0  0  0  0  0  0  0  0  0  0  0
    6.8467    1.5388    0.0000 O   0  0  0  0  0  0  0  0  0  0  0  0
    3.5217    0.0000    0.0000 R#  0  0  0  0  0  0  0  0  0  0  0  0
    6.8467    0.0104    0.0000 C   0  0  0  0  0  0  0  0  0  0  0  0
  1  2  1  0
  2  3  1  0
  3  4  1  0
  4  5  1  0
  5  1  1  0
  2  6  1  6
  3 11  1  6
  1  7  1  1
  4  8  1  1
  7  9  1  0
  9 10  1  0
  6 12  1  0
 11 13  1  0
A    8
R3
A   10
R1
A   12
R2
M  END
>  <symbol>  (877)
s4m

>  <m_abbr>  (877)
s4m

>  <m_type>  (877)
rna

>  <m_subtype>  (877)
natural

>  <m_RgroupIdx>  (877)
9,11,7

>  <m_Rgroups>  (877)
H,H,OH

$$$$

     RDKit          2D

 52 56  0  0  0  0  0  0  0  0999 V2000
    2.1267   12.6548    0.0000 C   0  0  0  0  0  0  0  0  0  0  0  0
    3.1421   11.5270    0.0000 C   0  0  0  0  0  0  0  0  0  0  0  0
    4.5286   12.1444    0.0000 C   0  0  0  0  0  0  0  0  0  0  0  0
    4.3701   13.6536    0.0000 C   0  0  0  0  0  0  0  0  0  0  0  0
    2.8856   13.9692    0.0000 O   0  0  0  0  0  0  0  0  0  0  0  0
    0.6173   12.4962    0.0000 C   0  0  0  0  0  0  0  0  0  0  0  0
    5.4980   14.6691    0.0000 R#  0  0  0  0  0  0  0  0  0  0  0  0
    2.8265   10.0424    0.0000 R#  0  0  0  0  0  0  0  0  0  0  0  0
    5.8430   11.3855    0.0000 O   0  0  0  0  0  0  0  0  0  0  0  0
    5.8430    9.8678    0.0000 C   0  0  0  0  0  0  0  0  0  0  0  0
    7.1574    9.1089    0.0000 C   0  0  0  0  0  0  0  0  0  0  0  0
    7.1574    7.5912    0.0000 N   0  0  0  0  0  0  0  0  0  0  0  0
    8.4718    6.8324    0.0000 C   0  0  0  0  0  0  0  0  0  0  0  0
    8.4718    5.3147    0.0000 C   0  0  0  0  0  0  0  0  0  0  0  0
    0.0000   11.1097    0.0000 R#  0  0  0  0  0  0  0  0  0  0  0  0
   13.7293    0.7615    0.0000 C   0  0  0  0  0  0  0  0  0  0  0  0
   13.7293    2.2845    0.0000 C   0  0  0  0  0  0  0  0  0  0  0  0
   15.0483    3.0460    0.0000 C   0  0  0  0  0  0  0  0  0  0  0  0
   15.0483    0.0000    0.0000 C   0  0  0  0  0  0  0  0  0  0  0  0
   16.3671    0.7615    0.0000 C   0  0  0  0  0  0  0  0  0  0  0  0
   17.6861    0.0000    0.0000 C   0  0  0  0  0  0  0  0  0  0  0  0
   19.0051    0.7615    0.0000 C   0  0  0  0  0  0  0  0  0  0  0  0
   19.0051    2.2845    0.0000 C   0  0  0  0  0  0  0  0  0  0  0  0
   20.3194    3.0434    0.0000 C   0  0  0  0  0  0  0  0  0  0  0  0
   21.7726    2.5754    0.0000 C   0  0  0  0  0  0  0  0  0  0  0  0
   22.6677    3.8075    0.0000 C   0  0  0  0  0  0  0  0  0  0  0  0
   21.7726    5.0398    0.0000 C   0  0  0  0  0  0  0  0  0  0  0  0
   22.2431    6.4882    0.0000 C   0  0  0  0  0  0  0  0  0  0  0  0
   23.7143    6.8823    0.0000 C   0  0  0  0  0  0  0  0  0  0  0  0
   24.1084    8.3534    0.0000 C   0  0  0  0  0  0  0  0  0  0  0  0
   25.5795    8.7476    0.0000 C   0  0  0  0  0  0  0  0  0  0  0  0
   25.9736   10.2187    0.0000 C   0  0  0  0  0  0  0  0  0  0  0  0
   27.4448   10.6128    0.0000 C   0  0  0  0  0  0  0  0  0  0  0  0
   24.8968   11.2957    0.0000 C   0  0  0  0  0  0  0  0  0  0  0  0
   21.1661    7.5652    0.0000 C   0  0  0  0  0  0  0  0  0  0  0  0
   20.3240    4.5690    0.0000 C   0  0  0  0  0  0  0  0  0  0  0  0
   20.3240    6.0920    0.0000 C   0  0  0  0  0  0  0  0  0  0  0  0
   19.0051    5.3305    0.0000 C   0  0  0  0  0  0  0  0  0  0  0  0
   17.6861    4.5690    0.0000 C   0  0  0  0  0  0  0  0  0  0  0  0
   17.6861    3.0460    0.0000 C   0  0  0  0  0  0  0  0  0  0  0  0
   16.3671    2.2845    0.0000 C   0  0  0  0  0  0  0  0  0  0  0  0
   16.3671    3.8075    0.0000 C   0  0  0  0  0  0  0  0  0  0  0  0
   12.4149    0.0027    0.0000 O   0  0  0  0  0  0  0  0  0  0  0  0
   17.6861    1.5230    0.0000 H   0  0  0  0  0  0  0  0  0  0  0  0
   19.0051    3.8075    0.0000 H   0  0  0  0  0  0  0  0  0  0  0  0
   20.3240    1.5230    0.0000 H   0  0  0  0  0  0  0  0  0  0  0  0
    9.7862    4.5558    0.0000 C   0  0  0  0  0  0  0  0  0  0  0  0
    8.4718    9.8678    0.0000 O   0  0  0  0  0  0  0  0  0  0  0  0
    9.7862    3.0381    0.0000 C   0  0  0  0  0  0  0  0  0  0  0  0
   11.1005    2.2793    0.0000 N   0  0  0  0  0  0  0  0  0  0  0  0
   11.1005    0.7615    0.0000 C   0  0  0  0  0  0  0  0  0  0  0  0
    9.7862    0.0027    0.0000 O   0  0  0  0  0  0  0  0  0  0  0  0
  1  2  1  0
  2  3  1  0
  3  4  1  0
  4  5  1  0
  5  1  1  0
  1  6  1  1
  4  7  1  1
  2  8  1  6
  3  9  1  6
  9 10  1  0
 10 11  1  0
 11 12  1  0
 12 13  1  0
 13 14  1  0
  6 15  1  0
 16 17  1  0
 17 18  1  0
 16 19  1  0
 19 20  1  0
 20 21  2  0
 21 22  1  0
 22 23  1  0
 23 24  1  0
 24 25  1  0
 25 26  1  0
 27 26  1  1
 27 28  1  0
 28 29  1  0
 29 30  1  0
 30 31  1  0
 31 32  1  0
 32 33  1  0
 32 34  1  0
 28 35  1  6
 27 36  1  0
 24 36  1  0
 36 37  1  1
 36 38  1  0
 38 39  1  0
 39 40  1  0
 23 40  1  0
 40 41  1  0
 18 41  1  0
 20 41  1  0
 41 42  1  1
 16 43  1  0
 40 44  1  6
 23 45  1  1
 24 46  1  6
 14 47  1  0
 11 48  2  0
 47 49  1  0
 49 50  1  0
 50 51  1  0
 51 52  2  0
 51 43  1  0
A    7
R3
A    8
R1
A   15
R2
M  END
>  <symbol>  (878)
cholcaba2r

>  <m_abbr>  (878)
cholcaba2r

>  <m_type>  (878)
rna

>  <m_subtype>  (878)
natural

>  <m_RgroupIdx>  (878)
7,14,6

>  <m_Rgroups>  (878)
H,H,OH

$$$$

     RDKit          2D

 12 12  0  0  0  0  0  0  0  0999 V2000
    3.9168    4.1934    0.0000 C   0  0  0  0  0  0  0  0  0  0  0  0
    4.2872    2.7162    0.0000 C   0  0  0  0  0  0  0  0  0  0  0  0
    5.8256    2.7028    0.0000 C   0  0  0  0  0  0  0  0  0  0  0  0
    6.3774    4.1538    0.0000 C   0  0  0  0  0  0  0  0  0  0  0  0
    5.2104    5.1307    0.0000 O   0  0  0  0  0  0  0  0  0  0  0  0
    3.3407    1.5230    0.0000 O   0  0  0  0  0  0  0  0  0  0  0  0
    2.4857    4.7143    0.0000 C   0  0  0  0  0  0  0  0  0  0  0  0
    7.8526    4.5323    0.0000 R#  0  0  0  0  0  0  0  0  0  0  0  0
    1.3190    3.7354    0.0000 O   0  0  0  0  0  0  0  0  0  0  0  0
    0.0000    4.4968    0.0000 R#  0  0  0  0  0  0  0  0  0  0  0  0
    3.3407    0.0000    0.0000 R#  0  0  0  0  0  0  0  0  0  0  0  0
    2.2212    6.2142    0.0000 C   0  0  0  0  0  0  0  0  0  0  0  0
  1  2  1  0
  2  3  1  0
  3  4  1  0
  4  5  1  0
  1  5  1  1
  2  6  1  6
  1  7  1  0
  4  8  1  1
  7  9  1  0
  9 10  1  0
  6 11  1  0
  7 12  1  6
A    8
R3
A   10
R1
A   11
R2
M  END
>  <symbol>  (879)
Rm5d

>  <m_abbr>  (879)
Rm5d

>  <m_type>  (879)
rna

>  <m_subtype>  (879)
natural

>  <m_RgroupIdx>  (879)
9,10,7

>  <m_Rgroups>  (879)
H,H,OH

$$$$

     RDKit          2D

 12 12  0  0  0  0  0  0  0  0999 V2000
    3.9168    4.1934    0.0000 C   0  0  0  0  0  0  0  0  0  0  0  0
    4.2872    2.7162    0.0000 C   0  0  0  0  0  0  0  0  0  0  0  0
    5.8256    2.7028    0.0000 C   0  0  0  0  0  0  0  0  0  0  0  0
    6.3774    4.1538    0.0000 C   0  0  0  0  0  0  0  0  0  0  0  0
    5.2104    5.1307    0.0000 O   0  0  0  0  0  0  0  0  0  0  0  0
    3.3407    1.5230    0.0000 O   0  0  0  0  0  0  0  0  0  0  0  0
    2.4857    4.7143    0.0000 C   0  0  0  0  0  0  0  0  0  0  0  0
    7.8526    4.5323    0.0000 R#  0  0  0  0  0  0  0  0  0  0  0  0
    1.3190    3.7354    0.0000 O   0  0  0  0  0  0  0  0  0  0  0  0
    0.0000    4.4968    0.0000 R#  0  0  0  0  0  0  0  0  0  0  0  0
    3.3407    0.0000    0.0000 R#  0  0  0  0  0  0  0  0  0  0  0  0
    2.2212    6.2142    0.0000 C   0  0  0  0  0  0  0  0  0  0  0  0
  1  2  1  0
  2  3  1  0
  3  4  1  0
  4  5  1  0
  1  5  1  1
  2  6  1  6
  1  7  1  0
  4  8  1  1
  7  9  1  0
  9 10  1  0
  6 11  1  0
  7 12  1  1
A    8
R3
A   10
R1
A   11
R2
M  END
>  <symbol>  (880)
Sm5d

>  <m_abbr>  (880)
Sm5d

>  <m_type>  (880)
rna

>  <m_subtype>  (880)
natural

>  <m_RgroupIdx>  (880)
9,10,7

>  <m_Rgroups>  (880)
H,H,OH

$$$$

     RDKit          2D

 14 14  0  0  0  0  0  0  0  0999 V2000
    3.9168    4.2711    0.0000 C   0  0  0  0  0  0  0  0  0  0  0  0
    4.2872    2.7939    0.0000 C   0  0  0  0  0  0  0  0  0  0  0  0
    5.8256    2.7805    0.0000 C   0  0  0  0  0  0  0  0  0  0  0  0
    6.3774    4.2315    0.0000 C   0  0  0  0  0  0  0  0  0  0  0  0
    5.2105    5.2084    0.0000 O   0  0  0  0  0  0  0  0  0  0  0  0
    3.3407    1.6007    0.0000 O   0  0  0  0  0  0  0  0  0  0  0  0
    2.4857    4.7920    0.0000 C   0  0  0  0  0  0  0  0  0  0  0  0
    7.8526    4.6100    0.0000 R#  0  0  0  0  0  0  0  0  0  0  0  0
    1.3190    3.8130    0.0000 O   0  0  0  0  0  0  0  0  0  0  0  0
    0.0000    4.5746    0.0000 R#  0  0  0  0  0  0  0  0  0  0  0  0
    3.3407    0.0777    0.0000 R#  0  0  0  0  0  0  0  0  0  0  0  0
    2.2212    6.2919    0.0000 C   0  0  0  0  0  0  0  0  0  0  0  0
    6.6847    1.5230    0.0000 O   0  0  0  0  0  0  0  0  0  0  0  0
    6.6847    0.0000    0.0000 C   0  0  0  0  0  0  0  0  0  0  0  0
  1  2  1  0
  2  3  1  0
  3  4  1  0
  4  5  1  0
  1  5  1  0
  2  6  1  6
  1  7  1  1
  4  8  1  1
  7  9  1  0
  9 10  1  0
  6 11  1  0
  7 12  1  0
  3 13  1  6
 13 14  1  0
A    8
R3
A   10
R1
A   11
R2
M  END
>  <symbol>  (881)
m5m

>  <m_abbr>  (881)
m5m

>  <m_type>  (881)
rna

>  <m_subtype>  (881)
natural

>  <m_RgroupIdx>  (881)
9,10,7

>  <m_Rgroups>  (881)
H,H,OH

$$$$

     RDKit          2D

 20 20  0  0  0  0  0  0  0  0999 V2000
    4.0295    8.0497    0.0000 C   0  0  0  0  0  0  0  0  0  0  0  0
    4.4724    6.5926    0.0000 C   0  0  0  0  0  0  0  0  0  0  0  0
    5.9952    6.5636    0.0000 C   0  0  0  0  0  0  0  0  0  0  0  0
    6.4881    7.9879    0.0000 C   0  0  0  0  0  0  0  0  0  0  0  0
    5.2784    8.9213    0.0000 O   0  0  0  0  0  0  0  0  0  0  0  0
    2.5902    8.5478    0.0000 C   0  0  0  0  0  0  0  0  0  0  0  0
    3.5540    5.3777    0.0000 O   0  0  0  0  0  0  0  0  0  0  0  0
    1.4392    7.5505    0.0000 O   0  0  0  0  0  0  0  0  0  0  0  0
    0.0000    8.0486    0.0000 R#  0  0  0  0  0  0  0  0  0  0  0  0
    3.6047    3.8556    0.0000 R#  0  0  0  0  0  0  0  0  0  0  0  0
    6.8667    5.3147    0.0000 O   0  0  0  0  0  0  0  0  0  0  0  0
    7.9504    8.4458    0.0000 R#  0  0  0  0  0  0  0  0  0  0  0  0
    6.8667    3.7917    0.0000 C   0  0  0  0  0  0  0  0  0  0  0  0
    8.1857    3.0302    0.0000 C   0  0  0  0  0  0  0  0  0  0  0  0
    9.2626    4.1071    0.0000 F   0  0  0  0  0  0  0  0  0  0  0  0
    9.7087    3.0302    0.0000 F   0  0  0  0  0  0  0  0  0  0  0  0
    8.1857    1.5177    0.0000 C   0  0  0  0  0  0  0  0  0  0  0  0
    6.8713    0.7589    0.0000 F   0  0  0  0  0  0  0  0  0  0  0  0
    8.1857    0.0000    0.0000 F   0  0  0  0  0  0  0  0  0  0  0  0
    9.5001    0.7589    0.0000 F   0  0  0  0  0  0  0  0  0  0  0  0
  1  2  1  0
  2  3  1  0
  3  4  1  0
  4  5  1  0
  5  1  1  0
  1  6  1  1
  2  7  1  6
  6  8  1  0
  8  9  1  0
  7 10  1  0
  3 11  1  6
  4 12  1  1
 11 13  1  0
 13 14  1  0
 14 17  1  0
 14 15  1  0
 14 16  1  0
 17 20  1  0
 17 19  1  0
 17 18  1  0
A    9
R1
A   10
R2
A   12
R3
M  END
>  <symbol>  (882)
fl5pr2r

>  <m_abbr>  (882)
fl5pr2r

>  <m_type>  (882)
rna

>  <m_subtype>  (882)
natural

>  <m_RgroupIdx>  (882)
8,9,11

>  <m_Rgroups>  (882)
H,H,OH

$$$$

     RDKit          2D

 40 40  0  0  0  0  0  0  0  0999 V2000
    3.9168   20.7209    0.0000 C   0  0  0  0  0  0  0  0  0  0  0  0
    4.2872   19.2436    0.0000 C   0  0  0  0  0  0  0  0  0  0  0  0
    5.8256   19.2303    0.0000 C   0  0  0  0  0  0  0  0  0  0  0  0
    6.3774   20.6812    0.0000 C   0  0  0  0  0  0  0  0  0  0  0  0
    5.2105   21.6582    0.0000 O   0  0  0  0  0  0  0  0  0  0  0  0
    3.3407   18.0505    0.0000 O   0  0  0  0  0  0  0  0  0  0  0  0
    2.4856   21.2418    0.0000 C   0  0  0  0  0  0  0  0  0  0  0  0
    7.8526   21.0598    0.0000 R#  0  0  0  0  0  0  0  0  0  0  0  0
    1.3190   20.2628    0.0000 O   0  0  0  0  0  0  0  0  0  0  0  0
    0.0000   21.0243    0.0000 R#  0  0  0  0  0  0  0  0  0  0  0  0
    3.3407   16.5275    0.0000 R#  0  0  0  0  0  0  0  0  0  0  0  0
    6.6397   17.9438    0.0000 O   0  0  0  0  0  0  0  0  0  0  0  0
   10.4472   16.6249    0.0000 C   0  0  0  0  0  0  0  0  0  0  0  0
    8.9242   16.6249    0.0000 C   0  0  0  0  0  0  0  0  0  0  0  0
    8.1627   17.9438    0.0000 C   0  0  0  0  0  0  0  0  0  0  0  0
   11.2087   15.3059    0.0000 C   0  0  0  0  0  0  0  0  0  0  0  0
   12.7317   15.3059    0.0000 C   0  0  0  0  0  0  0  0  0  0  0  0
   13.4932   13.9870    0.0000 C   0  0  0  0  0  0  0  0  0  0  0  0
   15.0162   13.9870    0.0000 N   0  0  0  0  0  0  0  0  0  0  0  0
   37.3584    0.0000    0.0000 C   0  0  0  0  0  0  0  0  0  0  0  0
   36.5899    1.3147    0.0000 C   0  0  0  0  0  0  0  0  0  0  0  0
   35.0668    1.3066    0.0000 C   0  0  0  0  0  0  0  0  0  0  0  0
   34.2982    2.6214    0.0000 C   0  0  0  0  0  0  0  0  0  0  0  0
   32.7752    2.6132    0.0000 C   0  0  0  0  0  0  0  0  0  0  0  0
   32.0067    3.9280    0.0000 C   0  0  0  0  0  0  0  0  0  0  0  0
   30.4837    3.9198    0.0000 C   0  0  0  0  0  0  0  0  0  0  0  0
   29.7150    5.2346    0.0000 C   0  0  0  0  0  0  0  0  0  0  0  0
   28.1921    5.2264    0.0000 C   0  0  0  0  0  0  0  0  0  0  0  0
   26.8691    5.9808    0.0000 C   0  0  0  0  0  0  0  0  0  0  0  0
   26.4171    7.2009    0.0000 C   0  0  0  0  0  0  0  0  0  0  0  0
   24.9439    7.4416    0.0000 C   0  0  0  0  0  0  0  0  0  0  0  0
   24.1753    8.7565    0.0000 C   0  0  0  0  0  0  0  0  0  0  0  0
   22.6524    8.7482    0.0000 C   0  0  0  0  0  0  0  0  0  0  0  0
   21.8838   10.0631    0.0000 C   0  0  0  0  0  0  0  0  0  0  0  0
   20.3607   10.0549    0.0000 C   0  0  0  0  0  0  0  0  0  0  0  0
   19.5923   11.3696    0.0000 C   0  0  0  0  0  0  0  0  0  0  0  0
   18.0692   11.3614    0.0000 C   0  0  0  0  0  0  0  0  0  0  0  0
   17.3006   12.6763    0.0000 C   0  0  0  0  0  0  0  0  0  0  0  0
   15.7777   12.6680    0.0000 C   0  0  0  0  0  0  0  0  0  0  0  0
   15.0233   11.3450    0.0000 O   0  0  0  0  0  0  0  0  0  0  0  0
  1  2  1  0
  2  3  1  0
  3  4  1  0
  4  5  1  0
  5  1  1  0
  2  6  1  6
  3 12  1  6
  1  7  1  1
  4  8  1  1
  7  9  1  0
  9 10  1  0
  6 11  1  0
 14 15  1  0
 13 14  1  0
 12 15  1  0
 13 16  1  0
 16 17  1  0
 17 18  1  0
 18 19  1  0
 19 39  1  0
 21 20  1  0
 22 21  1  0
 23 22  1  0
 24 23  1  0
 25 24  1  0
 26 25  1  0
 27 26  1  0
 28 27  1  0
 28 29  2  0
 29 30  1  0
 31 30  1  0
 32 31  1  0
 33 32  1  0
 34 33  1  0
 35 34  1  0
 36 35  1  0
 37 36  1  0
 38 37  1  0
 38 39  1  0
 39 40  2  0
A    8
R3
A   10
R1
A   11
R2
M  END
>  <symbol>  (883)
C20ene11oylnC62r

>  <m_abbr>  (883)
C20ene11oylnC62r

>  <m_type>  (883)
rna

>  <m_subtype>  (883)
natural

>  <m_RgroupIdx>  (883)
9,10,7

>  <m_Rgroups>  (883)
H,H,OH

$$$$

     RDKit          2D

 16 16  0  0  0  0  0  0  0  0999 V2000
    4.0293    4.9550    0.0000 C   0  0  0  0  0  0  0  0  0  0  0  0
    4.4330    3.5023    0.0000 C   0  0  0  0  0  0  0  0  0  0  0  0
    5.9558    3.5278    0.0000 C   0  0  0  0  0  0  0  0  0  0  0  0
    6.4654    4.9776    0.0000 C   0  0  0  0  0  0  0  0  0  0  0  0
    5.2860    5.9151    0.0000 S   0  0  0  0  0  0  0  0  0  0  0  0
    3.5217    2.2820    0.0000 O   0  0  0  0  0  0  0  0  0  0  0  0
    2.5853    5.4393    0.0000 C   0  0  0  0  0  0  0  0  0  0  0  0
    7.9288    5.3994    0.0000 R#  0  0  0  0  0  0  0  0  0  0  0  0
    1.4439    4.4310    0.0000 O   0  0  0  0  0  0  0  0  0  0  0  0
    0.0000    4.9153    0.0000 R#  0  0  0  0  0  0  0  0  0  0  0  0
    6.8466    2.2925    0.0000 O   0  0  0  0  0  0  0  0  0  0  0  0
    3.5217    0.7537    0.0000 R#  0  0  0  0  0  0  0  0  0  0  0  0
    6.8466    0.7642    0.0000 C   0  0  0  0  0  0  0  0  0  0  0  0
    8.1702    0.0000    0.0000 C   0  0  0  0  0  0  0  0  0  0  0  0
    9.4938    0.7642    0.0000 O   0  0  0  0  0  0  0  0  0  0  0  0
   10.8173    0.0000    0.0000 C   0  0  0  0  0  0  0  0  0  0  0  0
  1  2  1  0
  2  3  1  0
  3  4  1  0
  4  5  1  0
  5  1  1  0
  2  6  1  6
  3 11  1  6
  1  7  1  1
  4  8  1  1
  7  9  1  0
  9 10  1  0
  6 12  1  0
 11 13  1  0
 13 14  1  0
 14 15  1  0
 15 16  1  0
A    8
R3
A   10
R1
A   12
R2
M  END
>  <symbol>  (884)
s4moe

>  <m_abbr>  (884)
s4moe

>  <m_type>  (884)
rna

>  <m_subtype>  (884)
natural

>  <m_RgroupIdx>  (884)
9,11,7

>  <m_Rgroups>  (884)
H,H,OH

$$$$

     RDKit          2D

 14 15  0  0  0  0  0  0  0  0999 V2000
    3.6219    2.6695    0.0000 C   0  0  0  0  0  0  0  0  0  0  0  0
    5.9564    1.3679    0.0000 O   0  0  0  0  0  0  0  0  0  0  0  0
    4.0689    4.2992    0.0000 C   0  0  0  0  0  0  0  0  0  0  0  0
    4.4394    2.8220    0.0000 C   0  0  0  0  0  0  0  0  0  0  0  0
    5.9777    2.8086    0.0000 C   0  0  0  0  0  0  0  0  0  0  0  0
    6.5295    4.2596    0.0000 C   0  0  0  0  0  0  0  0  0  0  0  0
    5.3626    5.2365    0.0000 O   0  0  0  0  0  0  0  0  0  0  0  0
    3.9159    1.5230    0.0000 O   0  0  0  0  0  0  0  0  0  0  0  0
    2.6378    4.8201    0.0000 C   0  0  0  0  0  0  0  0  0  0  0  0
    8.0047    4.6381    0.0000 R#  0  0  0  0  0  0  0  0  0  0  0  0
    1.4711    3.8411    0.0000 O   0  0  0  0  0  0  0  0  0  0  0  0
    0.0000    4.2353    0.0000 R#  0  0  0  0  0  0  0  0  0  0  0  0
    3.9159    0.0000    0.0000 R#  0  0  0  0  0  0  0  0  0  0  0  0
    2.3733    6.3200    0.0000 C   0  0  0  0  0  0  0  0  0  0  0  0
  1  2  1  0
  3  4  1  0
  4  5  1  0
  5  6  1  0
  6  7  1  0
  7  3  1  0
  4  8  1  6
  3  9  1  0
  6 10  1  1
  9 11  1  0
  3  1  1  6
  5  2  1  6
 11 12  1  0
  8 13  1  0
  9 14  1  6
A   10
R3
A   12
R1
A   13
R2
M  END
>  <symbol>  (885)
Rm5lna

>  <m_abbr>  (885)
Rm5lna

>  <m_type>  (885)
rna

>  <m_subtype>  (885)
natural

>  <m_RgroupIdx>  (885)
11,12,9

>  <m_Rgroups>  (885)
H,H,OH

$$$$

     RDKit          2D

 14 15  0  0  0  0  0  0  0  0999 V2000
    3.6219    2.6695    0.0000 C   0  0  0  0  0  0  0  0  0  0  0  0
    5.9564    1.3679    0.0000 O   0  0  0  0  0  0  0  0  0  0  0  0
    4.0689    4.2992    0.0000 C   0  0  0  0  0  0  0  0  0  0  0  0
    4.4394    2.8220    0.0000 C   0  0  0  0  0  0  0  0  0  0  0  0
    5.9777    2.8086    0.0000 C   0  0  0  0  0  0  0  0  0  0  0  0
    6.5295    4.2596    0.0000 C   0  0  0  0  0  0  0  0  0  0  0  0
    5.3626    5.2365    0.0000 O   0  0  0  0  0  0  0  0  0  0  0  0
    3.9159    1.5230    0.0000 O   0  0  0  0  0  0  0  0  0  0  0  0
    2.6378    4.8201    0.0000 C   0  0  0  0  0  0  0  0  0  0  0  0
    8.0047    4.6381    0.0000 R#  0  0  0  0  0  0  0  0  0  0  0  0
    1.4711    3.8411    0.0000 O   0  0  0  0  0  0  0  0  0  0  0  0
    0.0000    4.2353    0.0000 R#  0  0  0  0  0  0  0  0  0  0  0  0
    3.9159    0.0000    0.0000 R#  0  0  0  0  0  0  0  0  0  0  0  0
    2.3733    6.3200    0.0000 C   0  0  0  0  0  0  0  0  0  0  0  0
  1  2  1  0
  3  4  1  0
  4  5  1  0
  5  6  1  0
  6  7  1  0
  7  3  1  0
  4  8  1  6
  3  9  1  0
  6 10  1  1
  9 11  1  0
  3  1  1  6
  5  2  1  6
 11 12  1  0
  8 13  1  0
  9 14  1  1
A   10
R3
A   12
R1
A   13
R2
M  END
>  <symbol>  (886)
Sm5lna

>  <m_abbr>  (886)
Sm5lna

>  <m_type>  (886)
rna

>  <m_subtype>  (886)
natural

>  <m_RgroupIdx>  (886)
11,12,9

>  <m_Rgroups>  (886)
H,H,OH

$$$$

     RDKit          2D

 14 15  0  0  0  0  0  0  0  0999 V2000
    3.6219    2.8416    0.0000 C   0  0  0  0  0  0  0  0  0  0  0  0
    5.9564    1.5401    0.0000 O   0  0  0  0  0  0  0  0  0  0  0  0
    4.0689    4.4714    0.0000 C   0  0  0  0  0  0  0  0  0  0  0  0
    4.4393    2.9941    0.0000 C   0  0  0  0  0  0  0  0  0  0  0  0
    5.9777    2.9808    0.0000 C   0  0  0  0  0  0  0  0  0  0  0  0
    6.5295    4.4317    0.0000 C   0  0  0  0  0  0  0  0  0  0  0  0
    5.3626    5.4086    0.0000 O   0  0  0  0  0  0  0  0  0  0  0  0
    2.6378    4.9923    0.0000 C   0  0  0  0  0  0  0  0  0  0  0  0
    8.0047    4.8103    0.0000 R#  0  0  0  0  0  0  0  0  0  0  0  0
    1.4711    4.0133    0.0000 O   0  0  0  0  0  0  0  0  0  0  0  0
    0.0000    4.4075    0.0000 R#  0  0  0  0  0  0  0  0  0  0  0  0
    2.2162    2.2555    0.0000 C   0  0  0  0  0  0  0  0  0  0  0  0
    4.0452    1.5230    0.0000 O   0  0  0  0  0  0  0  0  0  0  0  0
    4.0452    0.0000    0.0000 R#  0  0  0  0  0  0  0  0  0  0  0  0
  1  2  1  0
  3  4  1  0
  4  5  1  0
  5  6  1  0
  6  7  1  0
  3  7  1  0
  3  8  1  1
  6  9  1  1
  8 10  1  0
  3  1  1  0
  5  2  1  6
 10 11  1  0
  1 12  1  6
  4 13  1  6
 13 14  1  0
A    9
R3
A   11
R1
A   14
R2
M  END
>  <symbol>  (887)
Rcet

>  <m_abbr>  (887)
Rcet

>  <m_type>  (887)
rna

>  <m_subtype>  (887)
natural

>  <m_RgroupIdx>  (887)
10,13,8

>  <m_Rgroups>  (887)
H,H,OH

$$$$

     RDKit          2D

 14 15  0  0  0  0  0  0  0  0999 V2000
    3.6219    2.8417    0.0000 C   0  0  0  0  0  0  0  0  0  0  0  0
    5.9564    1.5401    0.0000 O   0  0  0  0  0  0  0  0  0  0  0  0
    4.0689    4.4714    0.0000 C   0  0  0  0  0  0  0  0  0  0  0  0
    4.4393    2.9942    0.0000 C   0  0  0  0  0  0  0  0  0  0  0  0
    5.9777    2.9808    0.0000 C   0  0  0  0  0  0  0  0  0  0  0  0
    6.5295    4.4317    0.0000 C   0  0  0  0  0  0  0  0  0  0  0  0
    5.3626    5.4087    0.0000 O   0  0  0  0  0  0  0  0  0  0  0  0
    2.6378    4.9923    0.0000 C   0  0  0  0  0  0  0  0  0  0  0  0
    8.0047    4.8103    0.0000 R#  0  0  0  0  0  0  0  0  0  0  0  0
    1.4711    4.0133    0.0000 O   0  0  0  0  0  0  0  0  0  0  0  0
    0.0000    4.4075    0.0000 R#  0  0  0  0  0  0  0  0  0  0  0  0
    2.2162    2.2555    0.0000 C   0  0  0  0  0  0  0  0  0  0  0  0
    4.0452    1.5231    0.0000 O   0  0  0  0  0  0  0  0  0  0  0  0
    4.0452    0.0000    0.0000 R#  0  0  0  0  0  0  0  0  0  0  0  0
  1  2  1  0
  3  4  1  0
  4  5  1  0
  5  6  1  0
  6  7  1  0
  3  7  1  0
  3  8  1  1
  6  9  1  1
  8 10  1  0
  3  1  1  0
  5  2  1  6
 10 11  1  0
  1 12  1  1
  4 13  1  6
 13 14  1  0
A    9
R3
A   11
R1
A   14
R2
M  END
>  <symbol>  (888)
cet

>  <m_abbr>  (888)
cet

>  <m_type>  (888)
rna

>  <m_subtype>  (888)
natural

>  <m_RgroupIdx>  (888)
10,13,8

>  <m_Rgroups>  (888)
H,H,OH

$$$$

     RDKit          2D

 13 13  0  0  0  0  0  0  0  0999 V2000
    3.9168    4.1934    0.0000 C   0  0  0  0  0  0  0  0  0  0  0  0
    4.2872    2.7162    0.0000 C   0  0  0  0  0  0  0  0  0  0  0  0
    5.8256    2.7028    0.0000 C   0  0  0  0  0  0  0  0  0  0  0  0
    6.3774    4.1538    0.0000 C   0  0  0  0  0  0  0  0  0  0  0  0
    5.2104    5.1307    0.0000 O   0  0  0  0  0  0  0  0  0  0  0  0
    3.3407    1.5230    0.0000 O   0  0  0  0  0  0  0  0  0  0  0  0
    2.4857    4.7143    0.0000 C   0  0  0  0  0  0  0  0  0  0  0  0
    7.8526    4.5323    0.0000 R#  0  0  0  0  0  0  0  0  0  0  0  0
    1.3190    3.7354    0.0000 O   0  0  0  0  0  0  0  0  0  0  0  0
    0.0000    4.4968    0.0000 R#  0  0  0  0  0  0  0  0  0  0  0  0
    3.3407    0.0000    0.0000 R#  0  0  0  0  0  0  0  0  0  0  0  0
    2.2212    6.2142    0.0000 C   0  0  0  0  0  0  0  0  0  0  0  0
    6.6847    1.4453    0.0000 F   0  0  0  0  0  0  0  0  0  0  0  0
  1  2  1  0
  2  3  1  0
  3  4  1  0
  4  5  1  0
  1  5  1  1
  2  6  1  6
  1  7  1  0
  4  8  1  1
  7  9  1  0
  9 10  1  0
  6 11  1  0
  7 12  1  6
  3 13  1  6
A    8
R3
A   10
R1
A   11
R2
M  END
>  <symbol>  (889)
Rm5fl2r

>  <m_abbr>  (889)
Rm5fl2r

>  <m_type>  (889)
rna

>  <m_subtype>  (889)
natural

>  <m_RgroupIdx>  (889)
9,10,7

>  <m_Rgroups>  (889)
H,H,OH

$$$$

     RDKit          2D

 13 13  0  0  0  0  0  0  0  0999 V2000
    3.9168    4.1934    0.0000 C   0  0  0  0  0  0  0  0  0  0  0  0
    4.2872    2.7162    0.0000 C   0  0  0  0  0  0  0  0  0  0  0  0
    5.8256    2.7028    0.0000 C   0  0  0  0  0  0  0  0  0  0  0  0
    6.3774    4.1538    0.0000 C   0  0  0  0  0  0  0  0  0  0  0  0
    5.2104    5.1307    0.0000 O   0  0  0  0  0  0  0  0  0  0  0  0
    3.3407    1.5230    0.0000 O   0  0  0  0  0  0  0  0  0  0  0  0
    2.4857    4.7143    0.0000 C   0  0  0  0  0  0  0  0  0  0  0  0
    7.8526    4.5323    0.0000 R#  0  0  0  0  0  0  0  0  0  0  0  0
    1.3190    3.7354    0.0000 O   0  0  0  0  0  0  0  0  0  0  0  0
    0.0000    4.4968    0.0000 R#  0  0  0  0  0  0  0  0  0  0  0  0
    3.3407    0.0000    0.0000 R#  0  0  0  0  0  0  0  0  0  0  0  0
    2.2212    6.2142    0.0000 C   0  0  0  0  0  0  0  0  0  0  0  0
    6.6847    1.4453    0.0000 F   0  0  0  0  0  0  0  0  0  0  0  0
  1  2  1  0
  2  3  1  0
  3  4  1  0
  4  5  1  0
  1  5  1  1
  2  6  1  6
  1  7  1  0
  4  8  1  1
  7  9  1  0
  9 10  1  0
  6 11  1  0
  7 12  1  1
  3 13  1  6
A    8
R3
A   10
R1
A   11
R2
M  END
>  <symbol>  (890)
Sm5fl2r

>  <m_abbr>  (890)
Sm5fl2r

>  <m_type>  (890)
rna

>  <m_subtype>  (890)
natural

>  <m_RgroupIdx>  (890)
9,10,7

>  <m_Rgroups>  (890)
H,H,OH

$$$$

     RDKit          2D

 16 17  0  0  0  0  0  0  0  0999 V2000
    3.6219    3.0208    0.0000 C   0  0  0  0  0  0  0  0  0  0  0  0
    5.9564    1.7193    0.0000 O   0  0  0  0  0  0  0  0  0  0  0  0
    4.0690    4.6506    0.0000 C   0  0  0  0  0  0  0  0  0  0  0  0
    4.4394    3.1733    0.0000 C   0  0  0  0  0  0  0  0  0  0  0  0
    5.9778    3.1600    0.0000 C   0  0  0  0  0  0  0  0  0  0  0  0
    6.5296    4.6109    0.0000 C   0  0  0  0  0  0  0  0  0  0  0  0
    5.3626    5.5878    0.0000 O   0  0  0  0  0  0  0  0  0  0  0  0
    2.6378    5.1715    0.0000 C   0  0  0  0  0  0  0  0  0  0  0  0
    8.0047    4.9895    0.0000 R#  0  0  0  0  0  0  0  0  0  0  0  0
    1.4711    4.1925    0.0000 O   0  0  0  0  0  0  0  0  0  0  0  0
    0.0000    4.5867    0.0000 R#  0  0  0  0  0  0  0  0  0  0  0  0
    2.2162    2.4347    0.0000 C   0  0  0  0  0  0  0  0  0  0  0  0
    4.0452    1.7022    0.0000 O   0  0  0  0  0  0  0  0  0  0  0  0
    4.0452    0.1792    0.0000 R#  0  0  0  0  0  0  0  0  0  0  0  0
    2.0210    0.9242    0.0000 O   0  0  0  0  0  0  0  0  0  0  0  0
    3.2315    0.0000    0.0000 C   0  0  0  0  0  0  0  0  0  0  0  0
 15 16  1  0
  1  2  1  0
  3  4  1  0
  4  5  1  0
  5  6  1  0
  6  7  1  0
  3  7  1  0
  3  8  1  1
  6  9  1  1
  8 10  1  0
  3  1  1  0
  5  2  1  6
 10 11  1  0
  1 12  1  1
  4 13  1  6
 13 14  1  0
 12 15  1  0
A    9
R3
A   11
R1
A   14
R2
M  END
>  <symbol>  (891)
Scmoe

>  <m_abbr>  (891)
Scmoe

>  <m_type>  (891)
rna

>  <m_subtype>  (891)
natural

>  <m_RgroupIdx>  (891)
10,13,8

>  <m_Rgroups>  (891)
H,H,OH

$$$$

     RDKit          2D

 16 17  0  0  0  0  0  0  0  0999 V2000
    3.6219    3.0208    0.0000 C   0  0  0  0  0  0  0  0  0  0  0  0
    5.9564    1.7193    0.0000 O   0  0  0  0  0  0  0  0  0  0  0  0
    4.0689    4.6506    0.0000 C   0  0  0  0  0  0  0  0  0  0  0  0
    4.4394    3.1733    0.0000 C   0  0  0  0  0  0  0  0  0  0  0  0
    5.9777    3.1600    0.0000 C   0  0  0  0  0  0  0  0  0  0  0  0
    6.5295    4.6109    0.0000 C   0  0  0  0  0  0  0  0  0  0  0  0
    5.3626    5.5879    0.0000 O   0  0  0  0  0  0  0  0  0  0  0  0
    2.6378    5.1715    0.0000 C   0  0  0  0  0  0  0  0  0  0  0  0
    8.0047    4.9895    0.0000 R#  0  0  0  0  0  0  0  0  0  0  0  0
    1.4711    4.1925    0.0000 O   0  0  0  0  0  0  0  0  0  0  0  0
    0.0000    4.5867    0.0000 R#  0  0  0  0  0  0  0  0  0  0  0  0
    2.2162    2.4347    0.0000 C   0  0  0  0  0  0  0  0  0  0  0  0
    4.0452    1.7022    0.0000 O   0  0  0  0  0  0  0  0  0  0  0  0
    4.0452    0.1792    0.0000 R#  0  0  0  0  0  0  0  0  0  0  0  0
    2.0210    0.9243    0.0000 O   0  0  0  0  0  0  0  0  0  0  0  0
    3.2314    0.0000    0.0000 C   0  0  0  0  0  0  0  0  0  0  0  0
 15 16  1  0
  1  2  1  0
  3  4  1  0
  4  5  1  0
  5  6  1  0
  6  7  1  0
  3  7  1  0
  3  8  1  1
  6  9  1  1
  8 10  1  0
  3  1  1  0
  5  2  1  6
 10 11  1  0
  1 12  1  6
  4 13  1  6
 13 14  1  0
 12 15  1  0
A    9
R3
A   11
R1
A   14
R2
M  END
>  <symbol>  (892)
Rcmoe

>  <m_abbr>  (892)
Rcmoe

>  <m_type>  (892)
rna

>  <m_subtype>  (892)
natural

>  <m_RgroupIdx>  (892)
10,13,8

>  <m_Rgroups>  (892)
H,H,OH

$$$$

     RDKit          2D

 14 15  0  0  0  0  0  0  0  0999 V2000
    1.7527    5.5939    0.0000 C   0  0  0  0  0  0  0  0  0  0  0  0
    1.4711    7.0907    0.0000 O   0  0  0  0  0  0  0  0  0  0  0  0
    2.6359    3.9373    0.0000 C   0  0  0  0  0  0  0  0  0  0  0  0
    5.0760    2.1603    0.0000 O   0  0  0  0  0  0  0  0  0  0  0  0
    3.1886    5.0916    0.0000 C   0  0  0  0  0  0  0  0  0  0  0  0
    5.0973    3.6010    0.0000 C   0  0  0  0  0  0  0  0  0  0  0  0
    5.6491    5.0519    0.0000 C   0  0  0  0  0  0  0  0  0  0  0  0
    4.4822    6.0289    0.0000 O   0  0  0  0  0  0  0  0  0  0  0  0
    3.5110    1.5230    0.0000 O   0  0  0  0  0  0  0  0  0  0  0  0
    7.1243    5.4305    0.0000 R#  0  0  0  0  0  0  0  0  0  0  0  0
    2.6786    2.7617    0.0000 N   0  0  0  0  0  0  0  0  0  0  0  0
    3.5590    3.6144    0.0000 C   0  0  0  0  0  0  0  0  0  0  0  0
    0.0000    7.4849    0.0000 R#  0  0  0  0  0  0  0  0  0  0  0  0
    3.5110    0.0000    0.0000 R#  0  0  0  0  0  0  0  0  0  0  0  0
  4 11  1  0
  5  1  1  1
  1  2  1  0
  5 12  1  0
 12  6  1  0
  6  7  1  0
  7  8  1  0
  8  5  1  0
  7 10  1  1
  5  3  1  0
  6  4  1  6
 11  3  1  0
 12  9  1  6
  2 13  1  0
  9 14  1  0
A   10
R3
A   13
R1
A   14
R2
M  END
>  <symbol>  (893)
bnanc

>  <m_abbr>  (893)
bnanc

>  <m_type>  (893)
rna

>  <m_subtype>  (893)
natural

>  <m_RgroupIdx>  (893)
12,13,9

>  <m_Rgroups>  (893)
H,H,OH

$$$$

     RDKit          2D

 15 16  0  0  0  0  0  0  0  0999 V2000
    1.7527    5.5939    0.0000 C   0  0  0  0  0  0  0  0  0  0  0  0
    1.4711    7.0907    0.0000 O   0  0  0  0  0  0  0  0  0  0  0  0
    2.6359    3.9373    0.0000 C   0  0  0  0  0  0  0  0  0  0  0  0
    5.0760    2.1603    0.0000 O   0  0  0  0  0  0  0  0  0  0  0  0
    3.1886    5.0916    0.0000 C   0  0  0  0  0  0  0  0  0  0  0  0
    5.0973    3.6010    0.0000 C   0  0  0  0  0  0  0  0  0  0  0  0
    5.6492    5.0519    0.0000 C   0  0  0  0  0  0  0  0  0  0  0  0
    4.4822    6.0289    0.0000 O   0  0  0  0  0  0  0  0  0  0  0  0
    3.5110    1.5230    0.0000 O   0  0  0  0  0  0  0  0  0  0  0  0
    7.1243    5.4305    0.0000 R#  0  0  0  0  0  0  0  0  0  0  0  0
    2.6786    2.7617    0.0000 N   0  0  0  0  0  0  0  0  0  0  0  0
    3.5590    3.6143    0.0000 C   0  0  0  0  0  0  0  0  0  0  0  0
    0.0000    7.4849    0.0000 R#  0  0  0  0  0  0  0  0  0  0  0  0
    3.5110    0.0000    0.0000 R#  0  0  0  0  0  0  0  0  0  0  0  0
    1.4950    1.8033    0.0000 C   0  0  0  0  0  0  0  0  0  0  0  0
  4 11  1  0
  5  1  1  1
  1  2  1  0
  5 12  1  0
 12  6  1  0
  6  7  1  0
  7  8  1  0
  8  5  1  0
  7 10  1  1
  5  3  1  0
  6  4  1  6
 11  3  1  0
 12  9  1  6
  2 13  1  0
  9 14  1  0
 11 15  1  0
A   10
R3
A   13
R1
A   14
R2
M  END
>  <symbol>  (894)
bnancm

>  <m_abbr>  (894)
bnancm

>  <m_type>  (894)
rna

>  <m_subtype>  (894)
natural

>  <m_RgroupIdx>  (894)
12,13,9

>  <m_Rgroups>  (894)
H,H,OH

$$$$

     RDKit          2D

 13 13  0  0  0  0  0  0  0  0999 V2000
    3.9168    4.1935    0.0000 C   0  0  0  0  0  0  0  0  0  0  0  0
    4.2872    2.7162    0.0000 C   0  0  0  0  0  0  0  0  0  0  0  0
    5.8256    2.7028    0.0000 C   0  0  0  0  0  0  0  0  0  0  0  0
    6.3774    4.1538    0.0000 C   0  0  0  0  0  0  0  0  0  0  0  0
    5.2105    5.1307    0.0000 O   0  0  0  0  0  0  0  0  0  0  0  0
    3.3407    1.5230    0.0000 O   0  0  0  0  0  0  0  0  0  0  0  0
    2.4857    4.7143    0.0000 C   0  0  0  0  0  0  0  0  0  0  0  0
    7.8526    4.5324    0.0000 R#  0  0  0  0  0  0  0  0  0  0  0  0
    1.3190    3.7354    0.0000 O   0  0  0  0  0  0  0  0  0  0  0  0
    0.0000    4.4969    0.0000 R#  0  0  0  0  0  0  0  0  0  0  0  0
    3.3407    0.0000    0.0000 R#  0  0  0  0  0  0  0  0  0  0  0  0
    2.8161    3.1104    0.0000 C   0  0  0  0  0  0  0  0  0  0  0  0
    6.6847    1.4453    0.0000 O   0  0  0  0  0  0  0  0  0  0  0  0
  1  2  1  0
  2  3  1  0
  3  4  1  0
  4  5  1  0
  5  1  1  0
  2  6  1  0
  1  7  1  1
  4  8  1  1
  7  9  1  0
  9 10  1  0
  6 11  1  0
  2 12  1  1
  3 13  1  6
A    8
R3
A   10
R1
A   11
R2
M  END
>  <symbol>  (895)
Bcm3r

>  <m_abbr>  (895)
Bcm3r

>  <m_type>  (895)
rna

>  <m_subtype>  (895)
natural

>  <m_RgroupIdx>  (895)
9,10,7

>  <m_Rgroups>  (895)
H,H,OH

$$$$

     RDKit          2D

 14 15  0  0  0  0  0  0  0  0999 V2000
    3.8279    2.8420    0.0000 C   0  0  0  0  0  0  0  0  0  0  0  0
    5.3509    2.8420    0.0000 C   0  0  0  0  0  0  0  0  0  0  0  0
    5.8172    4.2855    0.0000 C   0  0  0  0  0  0  0  0  0  0  0  0
    4.5807    5.1747    0.0000 O   0  0  0  0  0  0  0  0  0  0  0  0
    3.3614    4.2855    0.0000 C   0  0  0  0  0  0  0  0  0  0  0  0
    7.5102    4.8345    0.0000 R#  0  0  0  0  0  0  0  0  0  0  0  0
    3.3614    5.3854    0.0000 C   0  0  0  0  0  0  0  0  0  0  0  0
    5.2977    3.9576    0.0000 O   0  0  0  0  0  0  0  0  0  0  0  0
    2.2845    3.2087    0.0000 C   0  0  0  0  0  0  0  0  0  0  0  0
    3.0664    1.5230    0.0000 O   0  0  0  0  0  0  0  0  0  0  0  0
    0.7615    3.2087    0.0000 O   0  0  0  0  0  0  0  0  0  0  0  0
    2.5999    6.7043    0.0000 C   0  0  0  0  0  0  0  0  0  0  0  0
    0.0000    4.5276    0.0000 R#  0  0  0  0  0  0  0  0  0  0  0  0
    3.0664    0.0000    0.0000 R#  0  0  0  0  0  0  0  0  0  0  0  0
  1  2  1  0
  2  3  1  0
  3  4  1  0
  4  5  1  0
  1  5  1  0
  3  6  1  1
  5  7  1  0
  7  8  1  0
  2  8  1  1
  5  9  1  6
  1 10  1  1
  9 11  1  0
  7 12  1  6
 11 13  1  0
 10 14  1  0
A    6
R3
A   13
R1
A   14
R2
M  END
>  <symbol>  (896)
Sm6ALlna

>  <m_abbr>  (896)
Sm6ALlna

>  <m_type>  (896)
rna

>  <m_subtype>  (896)
natural

>  <m_RgroupIdx>  (896)
12,13,5

>  <m_Rgroups>  (896)
H,H,OH

$$$$

     RDKit          2D

 15 16  0  0  0  0  0  0  0  0999 V2000
    3.6218    2.6695    0.0000 C   0  0  0  0  0  0  0  0  0  0  0  0
    5.9564    1.3680    0.0000 O   0  0  0  0  0  0  0  0  0  0  0  0
    4.0689    4.2992    0.0000 C   0  0  0  0  0  0  0  0  0  0  0  0
    4.4393    2.8219    0.0000 C   0  0  0  0  0  0  0  0  0  0  0  0
    5.9777    2.8086    0.0000 C   0  0  0  0  0  0  0  0  0  0  0  0
    6.5295    4.2595    0.0000 C   0  0  0  0  0  0  0  0  0  0  0  0
    5.3626    5.2365    0.0000 O   0  0  0  0  0  0  0  0  0  0  0  0
    3.9159    1.5230    0.0000 O   0  0  0  0  0  0  0  0  0  0  0  0
    2.6378    4.8201    0.0000 C   0  0  0  0  0  0  0  0  0  0  0  0
    8.0046    4.6381    0.0000 R#  0  0  0  0  0  0  0  0  0  0  0  0
    1.4711    3.8411    0.0000 O   0  0  0  0  0  0  0  0  0  0  0  0
    0.0000    4.2353    0.0000 R#  0  0  0  0  0  0  0  0  0  0  0  0
    3.9159    0.0000    0.0000 R#  0  0  0  0  0  0  0  0  0  0  0  0
    2.3733    6.3200    0.0000 C   0  0  0  0  0  0  0  0  0  0  0  0
    1.0543    7.0815    0.0000 C   0  0  0  0  0  0  0  0  0  0  0  0
  1  2  1  0
  3  4  1  0
  4  5  1  0
  5  6  1  0
  6  7  1  0
  7  3  1  0
  4  8  1  6
  3  9  1  0
  6 10  1  1
  9 11  1  1
  3  1  1  6
  5  2  1  6
 11 12  1  0
  8 13  1  0
  9 14  1  0
 14 15  2  0
A   10
R3
A   12
R1
A   13
R2
M  END
>  <symbol>  (897)
Svinyl5lna

>  <m_abbr>  (897)
Svinyl5lna

>  <m_type>  (897)
rna

>  <m_subtype>  (897)
natural

>  <m_RgroupIdx>  (897)
11,12,9

>  <m_Rgroups>  (897)
H,H,OH

$$$$

     RDKit          2D

 13 13  0  0  0  0  0  0  0  0999 V2000
    4.5690    5.4799    0.0000 O   0  0  0  0  0  0  0  0  0  0  0  0
    3.8075    4.1609    0.0000 C   0  0  0  0  0  0  0  0  0  0  0  0
    4.5690    2.8420    0.0000 C   0  0  0  0  0  0  0  0  0  0  0  0
    6.0920    2.8420    0.0000 C   0  0  0  0  0  0  0  0  0  0  0  0
    6.8534    4.1609    0.0000 C   0  0  0  0  0  0  0  0  0  0  0  0
    6.0920    5.4799    0.0000 C   0  0  0  0  0  0  0  0  0  0  0  0
    8.3764    4.1609    0.0000 R#  0  0  0  0  0  0  0  0  0  0  0  0
    6.8535    1.5230    0.0000 F   0  0  0  0  0  0  0  0  0  0  0  0
    3.8075    1.5230    0.0000 O   0  0  0  0  0  0  0  0  0  0  0  0
    2.2845    4.1609    0.0000 C   0  0  0  0  0  0  0  0  0  0  0  0
    1.5230    2.8420    0.0000 O   0  0  0  0  0  0  0  0  0  0  0  0
    3.8075    0.0000    0.0000 R#  0  0  0  0  0  0  0  0  0  0  0  0
    0.0000    2.8420    0.0000 R#  0  0  0  0  0  0  0  0  0  0  0  0
  1  2  1  0
  2  3  1  0
  3  4  1  0
  4  5  1  0
  5  6  1  0
  6  1  1  0
  5  7  1  1
  4  8  1  6
  3  9  1  6
  2 10  1  1
 10 11  1  0
  9 12  1  0
 11 13  1  0
A    7
R3
A   12
R2
A   13
R1
M  END
>  <symbol>  (898)
fhna

>  <m_abbr>  (898)
fhna

>  <m_type>  (898)
rna

>  <m_subtype>  (898)
natural

>  <m_RgroupIdx>  (898)
12,11,6

>  <m_Rgroups>  (898)
H,H,OH

$$$$

     RDKit          2D

 15 16  0  0  0  0  0  0  0  0999 V2000
    3.6219    2.8417    0.0000 C   0  0  0  0  0  0  0  0  0  0  0  0
    5.9564    1.5401    0.0000 O   0  0  0  0  0  0  0  0  0  0  0  0
    4.0689    4.4714    0.0000 C   0  0  0  0  0  0  0  0  0  0  0  0
    4.4393    2.9942    0.0000 C   0  0  0  0  0  0  0  0  0  0  0  0
    5.9777    2.9808    0.0000 C   0  0  0  0  0  0  0  0  0  0  0  0
    6.5295    4.4317    0.0000 C   0  0  0  0  0  0  0  0  0  0  0  0
    5.3626    5.4087    0.0000 O   0  0  0  0  0  0  0  0  0  0  0  0
    2.6378    4.9923    0.0000 C   0  0  0  0  0  0  0  0  0  0  0  0
    8.0047    4.8103    0.0000 R#  0  0  0  0  0  0  0  0  0  0  0  0
    1.4711    4.0133    0.0000 O   0  0  0  0  0  0  0  0  0  0  0  0
    0.0000    4.4075    0.0000 R#  0  0  0  0  0  0  0  0  0  0  0  0
    4.0452    1.5231    0.0000 O   0  0  0  0  0  0  0  0  0  0  0  0
    4.0452    0.0000    0.0000 R#  0  0  0  0  0  0  0  0  0  0  0  0
    2.5449    1.7647    0.0000 C   0  0  0  0  0  0  0  0  0  0  0  0
    2.3052    3.6071    0.0000 C   0  0  0  0  0  0  0  0  0  0  0  0
  1  2  1  0
  3  4  1  0
  4  5  1  0
  5  6  1  0
  6  7  1  0
  3  7  1  0
  3  8  1  1
  6  9  1  1
  8 10  1  0
  3  1  1  0
  5  2  1  6
 10 11  1  0
  4 12  1  6
 12 13  1  0
  1 14  1  0
  1 15  1  0
A    9
R3
A   11
R1
A   13
R2
M  END
>  <symbol>  (899)
ciPr

>  <m_abbr>  (899)
ciPr

>  <m_type>  (899)
rna

>  <m_subtype>  (899)
natural

>  <m_RgroupIdx>  (899)
10,12,8

>  <m_Rgroups>  (899)
H,H,OH

$$$$

     RDKit          2D

 14 15  0  0  0  0  0  0  0  0999 V2000
    3.6219    2.8416    0.0000 C   0  0  0  0  0  0  0  0  0  0  0  0
    5.9564    1.5401    0.0000 C   0  0  0  0  0  0  0  0  0  0  0  0
    4.0689    4.4713    0.0000 C   0  0  0  0  0  0  0  0  0  0  0  0
    4.4394    2.9941    0.0000 C   0  0  0  0  0  0  0  0  0  0  0  0
    5.9777    2.9807    0.0000 C   0  0  0  0  0  0  0  0  0  0  0  0
    6.5295    4.4317    0.0000 C   0  0  0  0  0  0  0  0  0  0  0  0
    5.3626    5.4086    0.0000 O   0  0  0  0  0  0  0  0  0  0  0  0
    2.6378    4.9922    0.0000 C   0  0  0  0  0  0  0  0  0  0  0  0
    8.0047    4.8102    0.0000 R#  0  0  0  0  0  0  0  0  0  0  0  0
    1.4711    4.0133    0.0000 O   0  0  0  0  0  0  0  0  0  0  0  0
    0.0000    4.4075    0.0000 R#  0  0  0  0  0  0  0  0  0  0  0  0
    4.0452    1.5230    0.0000 O   0  0  0  0  0  0  0  0  0  0  0  0
    4.0452    0.0000    0.0000 R#  0  0  0  0  0  0  0  0  0  0  0  0
    6.7180    0.2212    0.0000 C   0  0  0  0  0  0  0  0  0  0  0  0
  1  2  1  0
  3  4  1  0
  4  5  1  0
  5  6  1  0
  6  7  1  0
  3  7  1  0
  3  8  1  1
  6  9  1  1
  8 10  1  0
  3  1  1  0
  5  2  1  6
 10 11  1  0
  4 12  1  6
 12 13  1  0
  2 14  2  0
A    9
R3
A   11
R1
A   13
R2
M  END
>  <symbol>  (900)
meclna

>  <m_abbr>  (900)
meclna

>  <m_type>  (900)
rna

>  <m_subtype>  (900)
natural

>  <m_RgroupIdx>  (900)
10,12,8

>  <m_Rgroups>  (900)
H,H,OH

$$$$

     RDKit          2D

 14 15  0  0  0  0  0  0  0  0999 V2000
    3.9458    4.2992    0.0000 C   0  0  0  0  0  0  0  0  0  0  0  0
    4.3162    2.8219    0.0000 C   0  0  0  0  0  0  0  0  0  0  0  0
    5.8546    2.8085    0.0000 C   0  0  0  0  0  0  0  0  0  0  0  0
    6.4064    4.2595    0.0000 C   0  0  0  0  0  0  0  0  0  0  0  0
    5.2395    5.2364    0.0000 O   0  0  0  0  0  0  0  0  0  0  0  0
    3.7928    1.5230    0.0000 O   0  0  0  0  0  0  0  0  0  0  0  0
    7.8816    4.6381    0.0000 R#  0  0  0  0  0  0  0  0  0  0  0  0
    3.7928    0.0000    0.0000 R#  0  0  0  0  0  0  0  0  0  0  0  0
    3.9319    5.3775    0.0000 C   0  0  0  0  0  0  0  0  0  0  0  0
    5.8031    3.9370    0.0000 O   0  0  0  0  0  0  0  0  0  0  0  0
    2.4355    4.1028    0.0000 C   0  0  0  0  0  0  0  0  0  0  0  0
    1.5103    5.3125    0.0000 O   0  0  0  0  0  0  0  0  0  0  0  0
    0.0000    5.1161    0.0000 R#  0  0  0  0  0  0  0  0  0  0  0  0
    1.8505    2.6966    0.0000 C   0  0  0  0  0  0  0  0  0  0  0  0
  1  2  1  0
  2  3  1  0
  3  4  1  0
  4  5  1  0
  5  1  1  0
  2  6  1  1
  4  7  1  1
  6  8  1  0
  1  9  1  1
  3 10  1  1
  9 10  1  0
  1 11  1  0
 11 12  1  0
 12 13  1  0
 11 14  1  6
A    7
R3
A    8
R2
A   13
R1
M  END
>  <symbol>  (901)
Sm5ALlna

>  <m_abbr>  (901)
Sm5ALlna

>  <m_type>  (901)
rna

>  <m_subtype>  (901)
natural

>  <m_RgroupIdx>  (901)
12,7,6

>  <m_Rgroups>  (901)
H,H,OH

$$$$

     RDKit          2D

 14 15  0  0  0  0  0  0  0  0999 V2000
    3.9458    4.2992    0.0000 C   0  0  0  0  0  0  0  0  0  0  0  0
    4.3162    2.8219    0.0000 C   0  0  0  0  0  0  0  0  0  0  0  0
    5.8546    2.8086    0.0000 C   0  0  0  0  0  0  0  0  0  0  0  0
    6.4064    4.2595    0.0000 C   0  0  0  0  0  0  0  0  0  0  0  0
    5.2394    5.2364    0.0000 O   0  0  0  0  0  0  0  0  0  0  0  0
    3.7928    1.5230    0.0000 O   0  0  0  0  0  0  0  0  0  0  0  0
    7.8816    4.6381    0.0000 R#  0  0  0  0  0  0  0  0  0  0  0  0
    3.7928    0.0000    0.0000 R#  0  0  0  0  0  0  0  0  0  0  0  0
    3.9318    5.3775    0.0000 C   0  0  0  0  0  0  0  0  0  0  0  0
    5.8031    3.9370    0.0000 O   0  0  0  0  0  0  0  0  0  0  0  0
    2.4355    4.1028    0.0000 C   0  0  0  0  0  0  0  0  0  0  0  0
    1.5103    5.3126    0.0000 O   0  0  0  0  0  0  0  0  0  0  0  0
    0.0000    5.1162    0.0000 R#  0  0  0  0  0  0  0  0  0  0  0  0
    1.8504    2.6967    0.0000 C   0  0  0  0  0  0  0  0  0  0  0  0
  1  2  1  0
  2  3  1  0
  3  4  1  0
  4  5  1  0
  5  1  1  0
  2  6  1  1
  4  7  1  1
  6  8  1  0
  1  9  1  1
  3 10  1  1
  9 10  1  0
  1 11  1  0
 11 12  1  0
 12 13  1  0
 11 14  1  1
A    7
R3
A    8
R2
A   13
R1
M  END
>  <symbol>  (902)
Rm5ALlna

>  <m_abbr>  (902)
Rm5ALlna

>  <m_type>  (902)
rna

>  <m_subtype>  (902)
natural

>  <m_RgroupIdx>  (902)
12,7,6

>  <m_Rgroups>  (902)
H,H,OH

$$$$

     RDKit          2D

 14 15  0  0  0  0  0  0  0  0999 V2000
    3.9458    4.1088    0.0000 C   0  0  0  0  0  0  0  0  0  0  0  0
    4.3162    2.6315    0.0000 C   0  0  0  0  0  0  0  0  0  0  0  0
    5.8545    2.6182    0.0000 C   0  0  0  0  0  0  0  0  0  0  0  0
    6.4063    4.0691    0.0000 C   0  0  0  0  0  0  0  0  0  0  0  0
    5.2394    5.0461    0.0000 O   0  0  0  0  0  0  0  0  0  0  0  0
    3.3358    1.5230    0.0000 O   0  0  0  0  0  0  0  0  0  0  0  0
    7.8815    4.4477    0.0000 R#  0  0  0  0  0  0  0  0  0  0  0  0
    3.3359    0.0000    0.0000 R#  0  0  0  0  0  0  0  0  0  0  0  0
    3.9318    5.1872    0.0000 C   0  0  0  0  0  0  0  0  0  0  0  0
    5.8030    3.7466    0.0000 O   0  0  0  0  0  0  0  0  0  0  0  0
    2.4355    3.9124    0.0000 C   0  0  0  0  0  0  0  0  0  0  0  0
    1.5103    5.1222    0.0000 O   0  0  0  0  0  0  0  0  0  0  0  0
    0.0000    4.9258    0.0000 R#  0  0  0  0  0  0  0  0  0  0  0  0
    4.9358    1.2403    0.0000 C   0  0  0  0  0  0  0  0  0  0  0  0
  1  2  1  0
  2  3  1  0
  3  4  1  0
  4  5  1  0
  5  1  1  0
  2  6  1  0
  4  7  1  1
  6  8  1  0
  1  9  1  0
  3 10  1  1
  9 10  1  0
  1 11  1  6
 11 12  1  0
 12 13  1  0
  2 14  1  6
A    7
R3
A    8
R2
A   13
R1
M  END
>  <symbol>  (903)
m3ALlna

>  <m_abbr>  (903)
m3ALlna

>  <m_type>  (903)
rna

>  <m_subtype>  (903)
natural

>  <m_RgroupIdx>  (903)
12,7,6

>  <m_Rgroups>  (903)
H,H,OH

$$$$

     RDKit          2D

 14 14  0  0  0  0  0  0  0  0999 V2000
    4.5690    5.4799    0.0000 O   0  0  0  0  0  0  0  0  0  0  0  0
    3.8075    4.1609    0.0000 C   0  0  0  0  0  0  0  0  0  0  0  0
    4.5690    2.8419    0.0000 C   0  0  0  0  0  0  0  0  0  0  0  0
    6.0920    2.8419    0.0000 C   0  0  0  0  0  0  0  0  0  0  0  0
    6.8535    4.1609    0.0000 C   0  0  0  0  0  0  0  0  0  0  0  0
    6.0920    5.4799    0.0000 C   0  0  0  0  0  0  0  0  0  0  0  0
    8.3765    4.1609    0.0000 R#  0  0  0  0  0  0  0  0  0  0  0  0
    3.8075    1.5230    0.0000 O   0  0  0  0  0  0  0  0  0  0  0  0
    2.2845    4.1609    0.0000 C   0  0  0  0  0  0  0  0  0  0  0  0
    1.5230    2.8419    0.0000 O   0  0  0  0  0  0  0  0  0  0  0  0
    3.8075    0.0000    0.0000 R#  0  0  0  0  0  0  0  0  0  0  0  0
    0.0000    2.8419    0.0000 R#  0  0  0  0  0  0  0  0  0  0  0  0
    6.8535    1.5230    0.0000 F   0  0  0  0  0  0  0  0  0  0  0  0
    1.5230    5.4799    0.0000 C   0  0  0  0  0  0  0  0  0  0  0  0
  2  1  1  1
  2  3  1  0
  3  4  1  0
  4  5  1  0
  5  6  1  0
  6  1  1  0
  5  7  1  1
  4 13  1  6
  3  8  1  6
  2  9  1  0
  9 10  1  0
  8 11  1  0
 10 12  1  0
  9 14  1  1
A    7
R3
A   11
R2
A   12
R1
M  END
>  <symbol>  (904)
Sm6fhna

>  <m_abbr>  (904)
Sm6fhna

>  <m_type>  (904)
rna

>  <m_subtype>  (904)
natural

>  <m_RgroupIdx>  (904)
11,10,6

>  <m_Rgroups>  (904)
H,H,OH

$$$$

     RDKit          2D

 13 13  0  0  0  0  0  0  0  0999 V2000
    4.5690    5.4799    0.0000 C   0  0  0  0  0  0  0  0  0  0  0  0
    3.8075    4.1609    0.0000 C   0  0  0  0  0  0  0  0  0  0  0  0
    4.5690    2.8419    0.0000 C   0  0  0  0  0  0  0  0  0  0  0  0
    6.0920    2.8419    0.0000 C   0  0  0  0  0  0  0  0  0  0  0  0
    6.8535    4.1609    0.0000 C   0  0  0  0  0  0  0  0  0  0  0  0
    6.0920    5.4799    0.0000 C   0  0  0  0  0  0  0  0  0  0  0  0
    8.3765    4.1609    0.0000 R#  0  0  0  0  0  0  0  0  0  0  0  0
    3.8075    1.5230    0.0000 O   0  0  0  0  0  0  0  0  0  0  0  0
    2.2845    4.1609    0.0000 C   0  0  0  0  0  0  0  0  0  0  0  0
    1.5231    2.8419    0.0000 O   0  0  0  0  0  0  0  0  0  0  0  0
    3.8075    0.0000    0.0000 R#  0  0  0  0  0  0  0  0  0  0  0  0
    0.0000    2.8419    0.0000 R#  0  0  0  0  0  0  0  0  0  0  0  0
    6.8535    1.5230    0.0000 F   0  0  0  0  0  0  0  0  0  0  0  0
  1  2  1  0
  2  3  1  0
  3  4  1  0
  4  5  1  0
  5  6  1  0
  6  1  2  0
  5  7  1  1
  3  8  1  6
  2  9  1  1
  9 10  1  0
  8 11  1  0
 10 12  1  0
  4 13  1  6
A    7
R3
A   11
R2
A   12
R1
M  END
>  <symbol>  (905)
fcena

>  <m_abbr>  (905)
fcena

>  <m_type>  (905)
rna

>  <m_subtype>  (905)
natural

>  <m_RgroupIdx>  (905)
11,10,6

>  <m_Rgroups>  (905)
H,H,OH

$$$$

     RDKit          2D

 14 15  0  0  0  0  0  0  0  0999 V2000
    3.6219    2.8416    0.0000 C   0  0  0  0  0  0  0  0  0  0  0  0
    5.9564    1.5401    0.0000 S   0  0  0  0  0  0  0  0  0  0  0  0
    4.0690    4.4714    0.0000 C   0  0  0  0  0  0  0  0  0  0  0  0
    4.4394    2.9941    0.0000 C   0  0  0  0  0  0  0  0  0  0  0  0
    5.9778    2.9808    0.0000 C   0  0  0  0  0  0  0  0  0  0  0  0
    6.5296    4.4317    0.0000 C   0  0  0  0  0  0  0  0  0  0  0  0
    5.3626    5.4086    0.0000 O   0  0  0  0  0  0  0  0  0  0  0  0
    2.6378    4.9923    0.0000 C   0  0  0  0  0  0  0  0  0  0  0  0
    8.0048    4.8103    0.0000 R#  0  0  0  0  0  0  0  0  0  0  0  0
    1.4711    4.0133    0.0000 O   0  0  0  0  0  0  0  0  0  0  0  0
    0.0000    4.4075    0.0000 R#  0  0  0  0  0  0  0  0  0  0  0  0
    4.0452    1.5230    0.0000 O   0  0  0  0  0  0  0  0  0  0  0  0
    4.0452    0.0000    0.0000 R#  0  0  0  0  0  0  0  0  0  0  0  0
    7.4794    1.5401    0.0000 O   0  0  0  0  0  0  0  0  0  0  0  0
  1  2  1  0
  3  4  1  0
  4  5  1  0
  5  6  1  0
  6  7  1  0
  3  7  1  0
  3  8  1  1
  6  9  1  1
  8 10  1  0
  3  1  1  0
  5  2  1  6
 10 11  1  0
  4 12  1  6
 12 13  1  0
  2 14  2  0
A    9
R3
A   11
R1
A   13
R2
M  END
>  <symbol>  (906)
Rso2lna

>  <m_abbr>  (906)
Rso2lna

>  <m_type>  (906)
rna

>  <m_subtype>  (906)
natural

>  <m_RgroupIdx>  (906)
10,12,8

>  <m_Rgroups>  (906)
H,H,OH

$$$$

     RDKit          2D

 14 15  0  0  0  0  0  0  0  0999 V2000
    3.6218    2.8416    0.0000 C   0  0  0  0  0  0  0  0  0  0  0  0
    5.9563    1.5400    0.0000 S   0  0  0  0  0  0  0  0  0  0  0  0
    4.0689    4.4713    0.0000 C   0  0  0  0  0  0  0  0  0  0  0  0
    4.4393    2.9941    0.0000 C   0  0  0  0  0  0  0  0  0  0  0  0
    5.9777    2.9807    0.0000 C   0  0  0  0  0  0  0  0  0  0  0  0
    6.5295    4.4317    0.0000 C   0  0  0  0  0  0  0  0  0  0  0  0
    5.3625    5.4086    0.0000 O   0  0  0  0  0  0  0  0  0  0  0  0
    2.6378    4.9922    0.0000 C   0  0  0  0  0  0  0  0  0  0  0  0
    8.0047    4.8102    0.0000 R#  0  0  0  0  0  0  0  0  0  0  0  0
    1.4711    4.0132    0.0000 O   0  0  0  0  0  0  0  0  0  0  0  0
    0.0000    4.4074    0.0000 R#  0  0  0  0  0  0  0  0  0  0  0  0
    4.0451    1.5230    0.0000 O   0  0  0  0  0  0  0  0  0  0  0  0
    4.0451    0.0000    0.0000 R#  0  0  0  0  0  0  0  0  0  0  0  0
    5.1948    0.2211    0.0000 O   0  0  0  0  0  0  0  0  0  0  0  0
  1  2  1  0
  3  4  1  0
  4  5  1  0
  5  6  1  0
  6  7  1  0
  3  7  1  0
  3  8  1  1
  6  9  1  1
  8 10  1  0
  3  1  1  0
  5  2  1  6
 10 11  1  0
  4 12  1  6
 12 13  1  0
  2 14  2  0
A    9
R3
A   11
R1
A   13
R2
M  END
>  <symbol>  (907)
Sso2lna

>  <m_abbr>  (907)
Sso2lna

>  <m_type>  (907)
rna

>  <m_subtype>  (907)
natural

>  <m_RgroupIdx>  (907)
10,12,8

>  <m_Rgroups>  (907)
H,H,OH

$$$$

     RDKit          2D

 17 17  0  0  0  0  0  0  0  0999 V2000
    4.0295    7.3041    0.0000 C   0  0  0  0  0  0  0  0  0  0  0  0
    4.4725    5.8469    0.0000 C   0  0  0  0  0  0  0  0  0  0  0  0
    5.9952    5.8180    0.0000 C   0  0  0  0  0  0  0  0  0  0  0  0
    6.4933    7.2572    0.0000 C   0  0  0  0  0  0  0  0  0  0  0  0
    5.2785    8.1757    0.0000 O   0  0  0  0  0  0  0  0  0  0  0  0
    2.5903    7.8022    0.0000 C   0  0  0  0  0  0  0  0  0  0  0  0
    3.5540    4.6321    0.0000 O   0  0  0  0  0  0  0  0  0  0  0  0
    1.4393    6.8048    0.0000 O   0  0  0  0  0  0  0  0  0  0  0  0
    0.0000    7.3029    0.0000 R#  0  0  0  0  0  0  0  0  0  0  0  0
    3.6048    3.1099    0.0000 R#  0  0  0  0  0  0  0  0  0  0  0  0
    6.8668    4.5690    0.0000 O   0  0  0  0  0  0  0  0  0  0  0  0
    7.9505    7.7002    0.0000 R#  0  0  0  0  0  0  0  0  0  0  0  0
    6.8668    3.0460    0.0000 C   0  0  0  0  0  0  0  0  0  0  0  0
    8.1858    2.2845    0.0000 C   0  0  0  0  0  0  0  0  0  0  0  0
    8.1858    0.7615    0.0000 O   0  0  0  0  0  0  0  0  0  0  0  0
    9.5047    0.0000    0.0000 C   0  0  0  0  0  0  0  0  0  0  0  0
    2.3020    9.2977    0.0000 C   0  0  0  0  0  0  0  0  0  0  0  0
  1  2  1  0
  2  3  1  0
  3  4  1  0
  4  5  1  0
  1  5  1  1
  1  6  1  0
  2  7  1  6
  6  8  1  0
  8  9  1  0
  7 10  1  0
  3 11  1  6
  4 12  1  1
 11 13  1  0
 13 14  1  0
 14 15  1  0
 15 16  1  0
  6 17  1  1
A    9
R1
A   10
R2
A   12
R3
M  END
>  <symbol>  (908)
Sm5moe

>  <m_abbr>  (908)
Sm5moe

>  <m_type>  (908)
rna

>  <m_subtype>  (908)
natural

>  <m_RgroupIdx>  (908)
8,9,11

>  <m_Rgroups>  (908)
H,H,OH

$$$$

     RDKit          2D

 17 17  0  0  0  0  0  0  0  0999 V2000
    4.5690    8.5259    0.0000 O   0  0  0  0  0  0  0  0  0  0  0  0
    3.8076    7.2069    0.0000 C   0  0  0  0  0  0  0  0  0  0  0  0
    4.5690    5.8879    0.0000 C   0  0  0  0  0  0  0  0  0  0  0  0
    6.0921    5.8879    0.0000 C   0  0  0  0  0  0  0  0  0  0  0  0
    6.8536    7.2069    0.0000 C   0  0  0  0  0  0  0  0  0  0  0  0
    6.0921    8.5259    0.0000 C   0  0  0  0  0  0  0  0  0  0  0  0
    8.3765    7.2069    0.0000 R#  0  0  0  0  0  0  0  0  0  0  0  0
    3.8076    4.5690    0.0000 O   0  0  0  0  0  0  0  0  0  0  0  0
    2.2845    7.2069    0.0000 C   0  0  0  0  0  0  0  0  0  0  0  0
    1.5231    5.8879    0.0000 O   0  0  0  0  0  0  0  0  0  0  0  0
    3.8076    3.0460    0.0000 R#  0  0  0  0  0  0  0  0  0  0  0  0
    0.0000    5.8879    0.0000 R#  0  0  0  0  0  0  0  0  0  0  0  0
    6.8536    4.5690    0.0000 O   0  0  0  0  0  0  0  0  0  0  0  0
    6.8536    3.0460    0.0000 C   0  0  0  0  0  0  0  0  0  0  0  0
    8.1725    2.2845    0.0000 C   0  0  0  0  0  0  0  0  0  0  0  0
    8.1725    0.7615    0.0000 O   0  0  0  0  0  0  0  0  0  0  0  0
    9.4915    0.0000    0.0000 C   0  0  0  0  0  0  0  0  0  0  0  0
  1  2  1  0
  2  3  1  0
  3  4  1  0
  4  5  1  0
  5  6  1  0
  6  1  1  0
  5  7  1  1
  4 13  1  6
  3  8  1  6
  2  9  1  1
  9 10  1  0
  8 11  1  0
 10 12  1  0
 13 14  1  0
 14 15  1  0
 15 16  1  0
 16 17  1  0
A    7
R3
A   11
R2
A   12
R1
M  END
>  <symbol>  (909)
moe3ana

>  <m_abbr>  (909)
moe3ana

>  <m_type>  (909)
rna

>  <m_subtype>  (909)
natural

>  <m_RgroupIdx>  (909)
11,10,6

>  <m_Rgroups>  (909)
H,H,OH

$$$$

     RDKit          2D

 16 18  0  0  0  0  0  0  0  0999 V2000
    3.3273    2.6755    0.0000 C   0  0  0  0  0  0  0  0  0  0  0  0
    4.8503    2.6695    0.0000 C   0  0  0  0  0  0  0  0  0  0  0  0
    5.3265    4.1161    0.0000 C   0  0  0  0  0  0  0  0  0  0  0  0
    4.0979    5.0160    0.0000 O   0  0  0  0  0  0  0  0  0  0  0  0
    2.8622    4.1257    0.0000 C   0  0  0  0  0  0  0  0  0  0  0  0
    2.8943    5.5961    0.0000 C   0  0  0  0  0  0  0  0  0  0  0  0
    4.7211    3.8336    0.0000 O   0  0  0  0  0  0  0  0  0  0  0  0
    6.7767    4.5812    0.0000 R#  0  0  0  0  0  0  0  0  0  0  0  0
    1.5521    6.4153    0.0000 C   0  0  0  0  0  0  0  0  0  0  0  0
    0.2303    5.6590    0.0000 C   0  0  0  0  0  0  0  0  0  0  0  0
    0.2244    4.1360    0.0000 C   0  0  0  0  0  0  0  0  0  0  0  0
    1.5402    3.3693    0.0000 C   0  0  0  0  0  0  0  0  0  0  0  0
    2.6927    1.3937    0.0000 O   0  0  0  0  0  0  0  0  0  0  0  0
    1.5342    1.8463    0.0000 O   0  0  0  0  0  0  0  0  0  0  0  0
    0.0000    0.9839    0.0000 R#  0  0  0  0  0  0  0  0  0  0  0  0
    3.3068    0.0000    0.0000 R#  0  0  0  0  0  0  0  0  0  0  0  0
  1  2  1  0
  2  3  1  0
  3  4  1  0
  5  4  1  6
  5  1  1  0
  5  6  1  0
  2  7  1  1
  3  8  1  1
  6  9  1  1
  9 10  1  0
 10 11  1  0
 11 12  1  0
 12  5  1  0
  1 13  1  1
 12 14  1  6
 14 15  1  0
 13 16  1  0
  6  7  1  0
A    8
R3
A   15
R1
A   16
R2
M  END
>  <symbol>  (910)
aLtrina1

>  <m_abbr>  (910)
aLtrina1

>  <m_type>  (910)
rna

>  <m_subtype>  (910)
natural

>  <m_RgroupIdx>  (910)
14,15,7

>  <m_Rgroups>  (910)
H,H,OH

$$$$

     RDKit          2D

 15 16  0  0  0  0  0  0  0  0999 V2000
    3.8322    2.9941    0.0000 C   0  0  0  0  0  0  0  0  0  0  0  0
    5.3553    2.9941    0.0000 C   0  0  0  0  0  0  0  0  0  0  0  0
    5.8259    4.4428    0.0000 C   0  0  0  0  0  0  0  0  0  0  0  0
    4.5938    5.3380    0.0000 O   0  0  0  0  0  0  0  0  0  0  0  0
    3.3616    4.4428    0.0000 C   0  0  0  0  0  0  0  0  0  0  0  0
    2.6001    5.7617    0.0000 C   0  0  0  0  0  0  0  0  0  0  0  0
    1.0770    5.7617    0.0000 O   0  0  0  0  0  0  0  0  0  0  0  0
    3.4380    1.5231    0.0000 O   0  0  0  0  0  0  0  0  0  0  0  0
    6.5874    5.7617    0.0000 R#  0  0  0  0  0  0  0  0  0  0  0  0
    2.9700    2.9818    0.0000 C   0  0  0  0  0  0  0  0  0  0  0  0
    5.3578    1.5231    0.0000 N   0  0  0  0  0  0  0  0  0  0  0  0
    0.0000    6.8387    0.0000 R#  0  0  0  0  0  0  0  0  0  0  0  0
    3.4380    0.0000    0.0000 R#  0  0  0  0  0  0  0  0  0  0  0  0
    6.1167    0.2087    0.0000 O   0  0  0  0  0  0  0  0  0  0  0  0
    7.6345    0.2087    0.0000 C   0  0  0  0  0  0  0  0  0  0  0  0
  1  2  1  0
  2  3  1  0
  3  4  1  0
  5  4  1  0
  5  1  1  0
  5  6  1  1
  6  7  1  0
  3  9  1  1
  5 10  1  0
  2 11  1  6
 10 11  1  0
  1  8  1  6
 11 14  1  0
  7 12  1  0
  8 13  1  0
 14 15  1  0
A    9
R3
A   12
R1
A   13
R2
M  END
>  <symbol>  (911)
mon2lna

>  <m_abbr>  (911)
mon2lna

>  <m_type>  (911)
rna

>  <m_subtype>  (911)
natural

>  <m_RgroupIdx>  (911)
11,12,8

>  <m_Rgroups>  (911)
H,H,OH

$$$$

     RDKit          2D

 14 15  0  0  0  0  0  0  0  0999 V2000
    3.8279    2.8419    0.0000 C   0  0  0  0  0  0  0  0  0  0  0  0
    5.3508    2.8419    0.0000 C   0  0  0  0  0  0  0  0  0  0  0  0
    5.8171    4.2855    0.0000 C   0  0  0  0  0  0  0  0  0  0  0  0
    4.5807    5.1747    0.0000 O   0  0  0  0  0  0  0  0  0  0  0  0
    3.3614    4.2855    0.0000 C   0  0  0  0  0  0  0  0  0  0  0  0
    7.5101    4.8343    0.0000 R#  0  0  0  0  0  0  0  0  0  0  0  0
    3.3614    5.8085    0.0000 C   0  0  0  0  0  0  0  0  0  0  0  0
    5.3504    5.8085    0.0000 C   0  0  0  0  0  0  0  0  0  0  0  0
    2.2844    3.2086    0.0000 C   0  0  0  0  0  0  0  0  0  0  0  0
    3.0664    1.5230    0.0000 O   0  0  0  0  0  0  0  0  0  0  0  0
    0.7615    3.2086    0.0000 O   0  0  0  0  0  0  0  0  0  0  0  0
    6.1119    7.1274    0.0000 C   0  0  0  0  0  0  0  0  0  0  0  0
    3.0664    0.0000    0.0000 R#  0  0  0  0  0  0  0  0  0  0  0  0
    0.0000    1.8896    0.0000 R#  0  0  0  0  0  0  0  0  0  0  0  0
  1  2  1  0
  2  3  1  0
  3  4  1  0
  4  5  1  0
  1  5  1  0
  3  6  1  1
  5  7  1  0
  7  8  1  0
  2  8  1  1
  5  9  1  6
  1 10  1  1
  9 11  1  0
  8 12  2  0
 10 13  1  0
 11 14  1  0
A    6
R3
A   13
R2
A   14
R1
M  END
>  <symbol>  (912)
ALmeclna

>  <m_abbr>  (912)
ALmeclna

>  <m_type>  (912)
rna

>  <m_subtype>  (912)
natural

>  <m_RgroupIdx>  (912)
13,12,5

>  <m_Rgroups>  (912)
H,H,OH

$$$$

     RDKit          2D

 15 16  0  0  0  0  0  0  0  0999 V2000
    3.6218    2.8416    0.0000 C   0  0  0  0  0  0  0  0  0  0  0  0
    5.9564    1.5400    0.0000 O   0  0  0  0  0  0  0  0  0  0  0  0
    4.0689    4.4713    0.0000 C   0  0  0  0  0  0  0  0  0  0  0  0
    4.4393    2.9940    0.0000 C   0  0  0  0  0  0  0  0  0  0  0  0
    5.9777    2.9807    0.0000 C   0  0  0  0  0  0  0  0  0  0  0  0
    6.5295    4.4317    0.0000 C   0  0  0  0  0  0  0  0  0  0  0  0
    5.3626    5.4086    0.0000 O   0  0  0  0  0  0  0  0  0  0  0  0
    2.6377    4.9922    0.0000 C   0  0  0  0  0  0  0  0  0  0  0  0
    8.0047    4.8102    0.0000 R#  0  0  0  0  0  0  0  0  0  0  0  0
    1.4711    4.0132    0.0000 O   0  0  0  0  0  0  0  0  0  0  0  0
    0.0000    4.4074    0.0000 R#  0  0  0  0  0  0  0  0  0  0  0  0
    4.0451    1.5229    0.0000 O   0  0  0  0  0  0  0  0  0  0  0  0
    4.0451    0.0000    0.0000 R#  0  0  0  0  0  0  0  0  0  0  0  0
    2.2174    2.2524    0.0000 C   0  0  0  0  0  0  0  0  0  0  0  0
    2.0255    0.7415    0.0000 C   0  0  0  0  0  0  0  0  0  0  0  0
  1  2  1  0
  3  4  1  0
  4  5  1  0
  5  6  1  0
  6  7  1  0
  3  7  1  0
  3  8  1  1
  6  9  1  1
  8 10  1  0
  3  1  1  0
  5  2  1  6
 10 11  1  0
  4 12  1  6
 12 13  1  0
  1 14  1  1
 14 15  1  0
A    9
R3
A   11
R1
A   13
R2
M  END
>  <symbol>  (913)
ScPr

>  <m_abbr>  (913)
ScPr

>  <m_type>  (913)
rna

>  <m_subtype>  (913)
natural

>  <m_RgroupIdx>  (913)
10,12,8

>  <m_Rgroups>  (913)
H,H,OH

$$$$

     RDKit          2D

 12 12  0  0  0  0  0  0  0  0999 V2000
    4.5690    5.4799    0.0000 C   0  0  0  0  0  0  0  0  0  0  0  0
    3.8075    4.1609    0.0000 C   0  0  0  0  0  0  0  0  0  0  0  0
    4.5690    2.8420    0.0000 C   0  0  0  0  0  0  0  0  0  0  0  0
    6.0919    2.8420    0.0000 C   0  0  0  0  0  0  0  0  0  0  0  0
    6.8535    4.1609    0.0000 C   0  0  0  0  0  0  0  0  0  0  0  0
    6.0919    5.4799    0.0000 C   0  0  0  0  0  0  0  0  0  0  0  0
    8.3765    4.1609    0.0000 R#  0  0  0  0  0  0  0  0  0  0  0  0
    3.8075    1.5230    0.0000 O   0  0  0  0  0  0  0  0  0  0  0  0
    2.2844    4.1609    0.0000 C   0  0  0  0  0  0  0  0  0  0  0  0
    1.5230    2.8420    0.0000 O   0  0  0  0  0  0  0  0  0  0  0  0
    3.8075    0.0000    0.0000 R#  0  0  0  0  0  0  0  0  0  0  0  0
    0.0000    2.8420    0.0000 R#  0  0  0  0  0  0  0  0  0  0  0  0
  1  2  1  0
  2  3  1  0
  3  4  1  0
  4  5  1  0
  5  6  1  0
  6  1  2  0
  5  7  1  1
  3  8  1  6
  2  9  1  1
  9 10  1  0
  8 11  1  0
 10 12  1  0
A    7
R3
A   11
R2
A   12
R1
M  END
>  <symbol>  (914)
cena

>  <m_abbr>  (914)
cena

>  <m_type>  (914)
rna

>  <m_subtype>  (914)
natural

>  <m_RgroupIdx>  (914)
11,10,6

>  <m_Rgroups>  (914)
H,H,OH

$$$$

     RDKit          2D

 42 42  0  0  0  0  0  0  0  0999 V2000
    3.9181   21.1740    0.0000 C   0  0  0  0  0  0  0  0  0  0  0  0
    4.2956   19.6985    0.0000 C   0  0  0  0  0  0  0  0  0  0  0  0
    5.8340   19.6925    0.0000 C   0  0  0  0  0  0  0  0  0  0  0  0
    6.3770   21.1410    0.0000 C   0  0  0  0  0  0  0  0  0  0  0  0
    5.2073   22.1174    0.0000 O   0  0  0  0  0  0  0  0  0  0  0  0
    3.3548   18.5008    0.0000 O   0  0  0  0  0  0  0  0  0  0  0  0
    2.4845   21.6880    0.0000 C   0  0  0  0  0  0  0  0  0  0  0  0
    7.8523   21.5316    0.0000 R#  0  0  0  0  0  0  0  0  0  0  0  0
    1.3225   20.7035    0.0000 O   0  0  0  0  0  0  0  0  0  0  0  0
    0.0000   21.4587    0.0000 R#  0  0  0  0  0  0  0  0  0  0  0  0
    3.3621   16.9778    0.0000 R#  0  0  0  0  0  0  0  0  0  0  0  0
    6.6543   18.4099    0.0000 O   0  0  0  0  0  0  0  0  0  0  0  0
   10.4680   17.1092    0.0000 C   0  0  0  0  0  0  0  0  0  0  0  0
    8.9450   17.1019    0.0000 C   0  0  0  0  0  0  0  0  0  0  0  0
    8.1773   18.4172    0.0000 C   0  0  0  0  0  0  0  0  0  0  0  0
   11.2358   15.7938    0.0000 C   0  0  0  0  0  0  0  0  0  0  0  0
   12.7588   15.8011    0.0000 C   0  0  0  0  0  0  0  0  0  0  0  0
   13.5266   14.4858    0.0000 C   0  0  0  0  0  0  0  0  0  0  0  0
   15.0496   14.4931    0.0000 N   0  0  0  0  0  0  0  0  0  0  0  0
   17.3324   13.1896    0.0000 C   0  0  0  0  0  0  0  0  0  0  0  0
   15.8147   13.1823    0.0000 C   0  0  0  0  0  0  0  0  0  0  0  0
   15.0621   11.8644    0.0000 O   0  0  0  0  0  0  0  0  0  0  0  0
   18.0939   11.8706    0.0000 C   0  0  0  0  0  0  0  0  0  0  0  0
   19.6169   11.8706    0.0000 C   0  0  0  0  0  0  0  0  0  0  0  0
   20.3784   10.5517    0.0000 C   0  0  0  0  0  0  0  0  0  0  0  0
   21.9014   10.5517    0.0000 C   0  0  0  0  0  0  0  0  0  0  0  0
   22.6629    9.2327    0.0000 C   0  0  0  0  0  0  0  0  0  0  0  0
   24.1859    9.2327    0.0000 C   0  0  0  0  0  0  0  0  0  0  0  0
   24.9474    7.9137    0.0000 C   0  0  0  0  0  0  0  0  0  0  0  0
   26.4704    7.9137    0.0000 C   0  0  0  0  0  0  0  0  0  0  0  0
   27.2319    6.5948    0.0000 C   0  0  0  0  0  0  0  0  0  0  0  0
   28.7549    6.5948    0.0000 C   0  0  0  0  0  0  0  0  0  0  0  0
   29.5164    5.2758    0.0000 C   0  0  0  0  0  0  0  0  0  0  0  0
   31.0394    5.2758    0.0000 C   0  0  0  0  0  0  0  0  0  0  0  0
   31.8009    3.9569    0.0000 C   0  0  0  0  0  0  0  0  0  0  0  0
   33.3239    3.9569    0.0000 C   0  0  0  0  0  0  0  0  0  0  0  0
   34.0854    2.6379    0.0000 C   0  0  0  0  0  0  0  0  0  0  0  0
   35.6084    2.6379    0.0000 C   0  0  0  0  0  0  0  0  0  0  0  0
   36.3699    1.3190    0.0000 C   0  0  0  0  0  0  0  0  0  0  0  0
   37.8929    1.3190    0.0000 C   0  0  0  0  0  0  0  0  0  0  0  0
   38.6544    0.0000    0.0000 C   0  0  0  0  0  0  0  0  0  0  0  0
   40.1774    0.0000    0.0000 C   0  0  0  0  0  0  0  0  0  0  0  0
  1  2  1  0
  2  3  1  0
  3  4  1  0
  4  5  1  0
  5  1  1  0
  2  6  1  6
  3 12  1  6
  1  7  1  1
  4  8  1  1
  7  9  1  0
  9 10  1  0
  6 11  1  0
 14 15  1  0
 13 14  1  0
 12 15  1  0
 13 16  1  0
 16 17  1  0
 17 18  1  0
 18 19  1  0
 21 20  1  0
 21 22  2  0
 21 19  1  0
 20 23  1  0
 23 24  1  0
 24 25  1  0
 25 26  1  0
 26 27  1  0
 27 28  1  0
 28 29  1  0
 29 30  1  0
 30 31  1  0
 31 32  1  0
 32 33  1  0
 33 34  1  0
 34 35  1  0
 35 36  1  0
 36 37  1  0
 37 38  1  0
 38 39  1  0
 39 40  1  0
 40 41  1  0
 41 42  1  0
A    8
R3
A   10
R1
A   11
R2
M  END
>  <symbol>  (915)
C22oylnC62r

>  <m_abbr>  (915)
C22oylnC62r

>  <m_type>  (915)
rna

>  <m_subtype>  (915)
natural

>  <m_RgroupIdx>  (915)
9,10,7

>  <m_Rgroups>  (915)
H,H,OH

$$$$

     RDKit          2D

 21 21  0  0  0  0  0  0  0  0999 V2000
    3.9182    7.9962    0.0000 C   0  0  0  0  0  0  0  0  0  0  0  0
    4.2957    6.5207    0.0000 C   0  0  0  0  0  0  0  0  0  0  0  0
    5.8341    6.5147    0.0000 C   0  0  0  0  0  0  0  0  0  0  0  0
    6.3771    7.9632    0.0000 C   0  0  0  0  0  0  0  0  0  0  0  0
    5.2074    8.9396    0.0000 O   0  0  0  0  0  0  0  0  0  0  0  0
    3.3549    5.3230    0.0000 O   0  0  0  0  0  0  0  0  0  0  0  0
    2.4846    8.5102    0.0000 C   0  0  0  0  0  0  0  0  0  0  0  0
    7.8523    8.3538    0.0000 R#  0  0  0  0  0  0  0  0  0  0  0  0
    1.3226    7.5257    0.0000 O   0  0  0  0  0  0  0  0  0  0  0  0
    0.0000    8.2809    0.0000 R#  0  0  0  0  0  0  0  0  0  0  0  0
    3.3622    3.8000    0.0000 R#  0  0  0  0  0  0  0  0  0  0  0  0
    6.6544    5.2321    0.0000 O   0  0  0  0  0  0  0  0  0  0  0  0
   10.4681    3.9314    0.0000 C   0  0  0  0  0  0  0  0  0  0  0  0
    8.9451    3.9241    0.0000 C   0  0  0  0  0  0  0  0  0  0  0  0
    8.1774    5.2394    0.0000 C   0  0  0  0  0  0  0  0  0  0  0  0
   11.2359    2.6160    0.0000 C   0  0  0  0  0  0  0  0  0  0  0  0
   12.7589    2.6233    0.0000 C   0  0  0  0  0  0  0  0  0  0  0  0
   13.5267    1.3080    0.0000 C   0  0  0  0  0  0  0  0  0  0  0  0
   15.0497    1.3153    0.0000 N   0  0  0  0  0  0  0  0  0  0  0  0
   15.8049    2.6379    0.0000 R#  0  0  0  0  0  0  0  0  0  0  0  0
   15.8175    0.0000    0.0000 R#  0  0  0  0  0  0  0  0  0  0  0  0
  1  2  1  0
  2  3  1  0
  3  4  1  0
  4  5  1  0
  5  1  1  0
  2  6  1  6
  3 12  1  6
  1  7  1  1
  4  8  1  1
  7  9  1  0
  9 10  1  0
  6 11  1  0
 14 15  1  0
 13 14  1  0
 12 15  1  0
 13 16  1  0
 16 17  1  0
 17 18  1  0
 18 19  1  0
 19 20  1  0
 19 21  1  0
A    8
R3
A   10
R1
A   11
R2
A   20
R5
A   21
R4
M  END
>  <symbol>  (916)
nC62r

>  <m_abbr>  (916)
nC62r

>  <m_type>  (916)
rna

>  <m_subtype>  (916)
natural

>  <m_RgroupIdx>  (916)
9,10,7,20,19

>  <m_Rgroups>  (916)
H,H,OH,H,H

$$$$

     RDKit          2D

 38 38  0  0  0  0  0  0  0  0999 V2000
    3.9182   18.5360    0.0000 C   0  0  0  0  0  0  0  0  0  0  0  0
    4.2956   17.0605    0.0000 C   0  0  0  0  0  0  0  0  0  0  0  0
    5.8340   17.0545    0.0000 C   0  0  0  0  0  0  0  0  0  0  0  0
    6.3770   18.5031    0.0000 C   0  0  0  0  0  0  0  0  0  0  0  0
    5.2073   19.4794    0.0000 O   0  0  0  0  0  0  0  0  0  0  0  0
    3.3548   15.8629    0.0000 O   0  0  0  0  0  0  0  0  0  0  0  0
    2.4846   19.0501    0.0000 C   0  0  0  0  0  0  0  0  0  0  0  0
    7.8523   18.8937    0.0000 R#  0  0  0  0  0  0  0  0  0  0  0  0
    1.3225   18.0656    0.0000 O   0  0  0  0  0  0  0  0  0  0  0  0
    0.0000   18.8208    0.0000 R#  0  0  0  0  0  0  0  0  0  0  0  0
    3.3621   14.3399    0.0000 R#  0  0  0  0  0  0  0  0  0  0  0  0
    6.6543   15.7720    0.0000 O   0  0  0  0  0  0  0  0  0  0  0  0
   10.4681   14.4712    0.0000 C   0  0  0  0  0  0  0  0  0  0  0  0
    8.9451   14.4639    0.0000 C   0  0  0  0  0  0  0  0  0  0  0  0
    8.1773   15.7792    0.0000 C   0  0  0  0  0  0  0  0  0  0  0  0
   11.2359   13.1559    0.0000 C   0  0  0  0  0  0  0  0  0  0  0  0
   12.7588   13.1632    0.0000 C   0  0  0  0  0  0  0  0  0  0  0  0
   13.5266   11.8479    0.0000 C   0  0  0  0  0  0  0  0  0  0  0  0
   15.0496   11.8551    0.0000 N   0  0  0  0  0  0  0  0  0  0  0  0
   17.3324   10.5516    0.0000 O   0  0  0  0  0  0  0  0  0  0  0  0
   15.8147   10.5444    0.0000 C   0  0  0  0  0  0  0  0  0  0  0  0
   15.0622    9.2264    0.0000 O   0  0  0  0  0  0  0  0  0  0  0  0
   18.0939    9.2327    0.0000 C   0  0  0  0  0  0  0  0  0  0  0  0
   19.6169    9.2327    0.0000 C   0  0  0  0  0  0  0  0  0  0  0  0
   20.3784    7.9137    0.0000 C   0  0  0  0  0  0  0  0  0  0  0  0
   21.9014    7.9137    0.0000 C   0  0  0  0  0  0  0  0  0  0  0  0
   22.6629    6.5948    0.0000 C   0  0  0  0  0  0  0  0  0  0  0  0
   24.1859    6.5948    0.0000 C   0  0  0  0  0  0  0  0  0  0  0  0
   24.9474    5.2758    0.0000 C   0  0  0  0  0  0  0  0  0  0  0  0
   26.4704    5.2758    0.0000 C   0  0  0  0  0  0  0  0  0  0  0  0
   27.2319    3.9569    0.0000 C   0  0  0  0  0  0  0  0  0  0  0  0
   28.7549    3.9569    0.0000 C   0  0  0  0  0  0  0  0  0  0  0  0
   29.5164    2.6379    0.0000 C   0  0  0  0  0  0  0  0  0  0  0  0
   31.0394    2.6379    0.0000 C   0  0  0  0  0  0  0  0  0  0  0  0
   31.8009    1.3190    0.0000 C   0  0  0  0  0  0  0  0  0  0  0  0
   33.3239    1.3190    0.0000 C   0  0  0  0  0  0  0  0  0  0  0  0
   34.0854    0.0000    0.0000 C   0  0  0  0  0  0  0  0  0  0  0  0
   35.6084    0.0000    0.0000 C   0  0  0  0  0  0  0  0  0  0  0  0
  1  2  1  0
  2  3  1  0
  3  4  1  0
  4  5  1  0
  5  1  1  0
  2  6  1  6
  3 12  1  6
  1  7  1  1
  4  8  1  1
  7  9  1  0
  9 10  1  0
  6 11  1  0
 14 15  1  0
 13 14  1  0
 12 15  1  0
 13 16  1  0
 16 17  1  0
 17 18  1  0
 18 19  1  0
 21 20  1  0
 21 22  2  0
 21 19  1  0
 20 23  1  0
 23 24  1  0
 24 25  1  0
 25 26  1  0
 26 27  1  0
 27 28  1  0
 28 29  1  0
 29 30  1  0
 30 31  1  0
 31 32  1  0
 32 33  1  0
 33 34  1  0
 34 35  1  0
 35 36  1  0
 36 37  1  0
 37 38  1  0
A    8
R3
A   10
R1
A   11
R2
M  END
>  <symbol>  (917)
C16ocnC62r

>  <m_abbr>  (917)
C16ocnC62r

>  <m_type>  (917)
rna

>  <m_subtype>  (917)
natural

>  <m_RgroupIdx>  (917)
9,10,7

>  <m_Rgroups>  (917)
H,H,OH

$$$$

     RDKit          2D

 13 14  0  0  0  0  0  0  0  0999 V2000
    4.4547    5.1139    0.0000 O   0  0  0  0  0  0  0  0  0  0  0  0
    3.2280    4.2113    0.0000 C   0  0  0  0  0  0  0  0  0  0  0  0
    5.6922    4.2260    0.0000 C   0  0  0  0  0  0  0  0  0  0  0  0
    3.7071    2.7657    0.0000 C   0  0  0  0  0  0  0  0  0  0  0  0
    5.2301    2.7748    0.0000 C   0  0  0  0  0  0  0  0  0  0  0  0
    2.8193    1.5283    0.0000 O   0  0  0  0  0  0  0  0  0  0  0  0
    1.7767    4.6734    0.0000 C   0  0  0  0  0  0  0  0  0  0  0  0
    1.4513    6.1612    0.0000 O   0  0  0  0  0  0  0  0  0  0  0  0
    0.0000    6.6232    0.0000 R#  0  0  0  0  0  0  0  0  0  0  0  0
    7.1378    4.7052    0.0000 R#  0  0  0  0  0  0  0  0  0  0  0  0
    2.8193    0.0000    0.0000 R#  0  0  0  0  0  0  0  0  0  0  0  0
    5.0709    3.9263    0.0000 O   0  0  0  0  0  0  0  0  0  0  0  0
    3.8663    3.9263    0.0000 C   0  0  0  0  0  0  0  0  0  0  0  0
  1  2  1  0
  1  3  1  0
  2  4  1  0
  2  7  1  1
  3  5  1  0
  4  5  1  0
  4  6  1  6
  7  8  1  0
  8  9  1  0
  3 10  1  1
  6 11  1  0
  5 12  1  1
 12 13  1  0
 13  4  1  0
A    9
R1
A   10
R3
A   11
R2
M  END
>  <symbol>  (918)
ox23ar

>  <m_abbr>  (918)
ox23ar

>  <m_type>  (918)
rna

>  <m_subtype>  (918)
natural

>  <m_RgroupIdx>  (918)
8,10,9

>  <m_Rgroups>  (918)
H,H,OH

$$$$

     RDKit          2D

 13 13  0  0  0  0  0  0  0  0999 V2000
    4.0295    4.2062    0.0000 C   0  0  0  0  0  0  0  0  0  0  0  0
    4.4724    2.7490    0.0000 C   0  0  0  0  0  0  0  0  0  0  0  0
    5.9952    2.7200    0.0000 C   0  0  0  0  0  0  0  0  0  0  0  0
    6.4933    4.1593    0.0000 C   0  0  0  0  0  0  0  0  0  0  0  0
    5.2784    5.0777    0.0000 O   0  0  0  0  0  0  0  0  0  0  0  0
    2.5902    4.7043    0.0000 C   0  0  0  0  0  0  0  0  0  0  0  0
    3.5540    1.5341    0.0000 O   0  0  0  0  0  0  0  0  0  0  0  0
    1.4392    3.7069    0.0000 O   0  0  0  0  0  0  0  0  0  0  0  0
    0.0000    4.2050    0.0000 R#  0  0  0  0  0  0  0  0  0  0  0  0
    3.6047    0.0120    0.0000 R#  0  0  0  0  0  0  0  0  0  0  0  0
    7.9504    4.6023    0.0000 R#  0  0  0  0  0  0  0  0  0  0  0  0
    6.8668    1.4711    0.0000 Se  0  0  0  0  0  2  0  0  0  0  0  0
    7.2609    0.0000    0.0000 C   0  0  0  0  0  0  0  0  0  0  0  0
  1  2  1  0
  2  3  1  0
  3  4  1  0
  4  5  1  0
  5  1  1  0
  1  6  1  1
  2  7  1  6
  6  8  1  0
  8  9  1  0
  7 10  1  0
  4 11  1  1
  3 12  1  6
 12 13  1  0
A    9
R1
A   10
R2
A   11
R3
M  END
>  <symbol>  (919)
se2r

>  <m_abbr>  (919)
se2r

>  <m_type>  (919)
rna

>  <m_subtype>  (919)
natural

>  <m_RgroupIdx>  (919)
8,9,10

>  <m_Rgroups>  (919)
H,H,OH

$$$$

     RDKit          2D

 29 33  0  0  0  0  0  0  0  0999 V2000
    3.9168    8.0528    0.0000 C   0  0  0  0  0  0  0  0  0  0  0  0
    4.2872    6.5756    0.0000 C   0  0  0  0  0  0  0  0  0  0  0  0
    5.8256    6.5622    0.0000 C   0  0  0  0  0  0  0  0  0  0  0  0
    6.3774    8.0132    0.0000 C   0  0  0  0  0  0  0  0  0  0  0  0
    5.2105    8.9901    0.0000 O   0  0  0  0  0  0  0  0  0  0  0  0
    3.3407    5.3824    0.0000 O   0  0  0  0  0  0  0  0  0  0  0  0
    2.4857    8.5737    0.0000 C   0  0  0  0  0  0  0  0  0  0  0  0
    7.8526    8.3918    0.0000 R#  0  0  0  0  0  0  0  0  0  0  0  0
    1.3190    7.5948    0.0000 O   0  0  0  0  0  0  0  0  0  0  0  0
    0.0000    8.3563    0.0000 R#  0  0  0  0  0  0  0  0  0  0  0  0
    3.3407    3.8594    0.0000 R#  0  0  0  0  0  0  0  0  0  0  0  0
    6.6397    5.2758    0.0000 O   0  0  0  0  0  0  0  0  0  0  0  0
    8.9242    3.9568    0.0000 C   0  0  0  0  0  0  0  0  0  0  0  0
    8.1627    5.2758    0.0000 C   0  0  0  0  0  0  0  0  0  0  0  0
    8.1627    2.6379    0.0000 C   0  0  0  0  0  0  0  0  0  0  0  0
    8.9242    1.3189    0.0000 C   0  0  0  0  0  0  0  0  0  0  0  0
   10.4472    1.3189    0.0000 C   0  0  0  0  0  0  0  0  0  0  0  0
   11.2087    2.6379    0.0000 C   0  0  0  0  0  0  0  0  0  0  0  0
   10.4472    3.9568    0.0000 C   0  0  0  0  0  0  0  0  0  0  0  0
   12.7317    2.6379    0.0000 C   0  0  0  0  0  0  0  0  0  0  0  0
   13.4932    3.9568    0.0000 C   0  0  0  0  0  0  0  0  0  0  0  0
   12.7317    5.2758    0.0000 C   0  0  0  0  0  0  0  0  0  0  0  0
   11.2087    5.2758    0.0000 C   0  0  0  0  0  0  0  0  0  0  0  0
   11.2087    0.0000    0.0000 C   0  0  0  0  0  0  0  0  0  0  0  0
   12.7317    0.0000    0.0000 C   0  0  0  0  0  0  0  0  0  0  0  0
   13.4932    1.3189    0.0000 C   0  0  0  0  0  0  0  0  0  0  0  0
   15.0162    1.3189    0.0000 C   0  0  0  0  0  0  0  0  0  0  0  0
   15.7777    2.6379    0.0000 C   0  0  0  0  0  0  0  0  0  0  0  0
   15.0162    3.9568    0.0000 C   0  0  0  0  0  0  0  0  0  0  0  0
  1  2  1  0
  2  3  1  0
  3  4  1  0
  4  5  1  0
  5  1  1  0
  2  6  1  6
  3 12  1  6
  1  7  1  1
  4  8  1  1
  7  9  1  0
  9 10  1  0
  6 11  1  0
 13 14  1  0
 12 14  1  0
 13 15  2  0
 15 16  1  0
 16 17  2  0
 17 18  1  0
 18 19  2  0
 19 13  1  0
 18 20  1  0
 20 21  2  0
 21 22  1  0
 22 23  2  0
 23 19  1  0
 17 24  1  0
 24 25  1  0
 25 26  2  0
 26 20  1  0
 26 27  1  0
 27 28  1  0
 28 29  2  0
 29 21  1  0
A    8
R3
A   10
R1
A   11
R2
M  END
>  <symbol>  (920)
pyren1ylm2r

>  <m_abbr>  (920)
pyren1ylm2r

>  <m_type>  (920)
rna

>  <m_subtype>  (920)
natural

>  <m_RgroupIdx>  (920)
9,10,7

>  <m_Rgroups>  (920)
H,H,OH

$$$$

     RDKit          2D

 14 15  0  0  0  0  0  0  0  0999 V2000
    3.6734    2.9953    0.0000 C   0  0  0  0  0  0  0  0  0  0  0  0
    5.1770    2.5068    0.0000 C   0  0  0  0  0  0  0  0  0  0  0  0
    6.0090    3.7542    0.0000 C   0  0  0  0  0  0  0  0  0  0  0  0
    5.1167    4.9820    0.0000 O   0  0  0  0  0  0  0  0  0  0  0  0
    3.6734    4.5130    0.0000 C   0  0  0  0  0  0  0  0  0  0  0  0
    7.5267    3.7542    0.0000 R#  0  0  0  0  0  0  0  0  0  0  0  0
    3.6734    1.4776    0.0000 O   0  0  0  0  0  0  0  0  0  0  0  0
    2.2300    4.9819    0.0000 C   0  0  0  0  0  0  0  0  0  0  0  0
    1.3378    3.7541    0.0000 C   0  0  0  0  0  0  0  0  0  0  0  0
    2.2300    2.5261    0.0000 C   0  0  0  0  0  0  0  0  0  0  0  0
    3.6734    6.0307    0.0000 H   0  0  0  0  0  0  0  0  0  0  0  0
    1.7610    6.4253    0.0000 O   0  0  0  0  0  0  0  0  0  0  0  0
    0.0000    6.4253    0.0000 R#  0  0  0  0  0  0  0  0  0  0  0  0
    2.7533    0.0000    0.0000 R#  0  0  0  0  0  0  0  0  0  0  0  0
  1  2  1  0
  2  3  1  0
  3  4  1  0
  4  5  1  0
  5  1  1  0
  3  6  1  1
  1  7  1  6
  5  8  1  0
  8  9  1  0
  9 10  1  0
 10  1  1  0
  5 11  1  6
  8 12  1  6
 12 13  1  0
  7 14  1  0
A    6
R3
A   13
R1
A   14
R2
M  END
>  <symbol>  (921)
bcdna

>  <m_abbr>  (921)
bcdna

>  <m_type>  (921)
rna

>  <m_subtype>  (921)
natural

>  <m_RgroupIdx>  (921)
12,13,5

>  <m_Rgroups>  (921)
H,H,OH

$$$$

     RDKit          2D

 16 18  0  0  0  0  0  0  0  0999 V2000
    3.4128    2.9666    0.0000 C   0  0  0  0  0  0  0  0  0  0  0  0
    4.9358    2.9666    0.0000 C   0  0  0  0  0  0  0  0  0  0  0  0
    5.4064    4.4150    0.0000 C   0  0  0  0  0  0  0  0  0  0  0  0
    4.1743    5.3102    0.0000 O   0  0  0  0  0  0  0  0  0  0  0  0
    2.9421    4.4150    0.0000 C   0  0  0  0  0  0  0  0  0  0  0  0
    2.5479    2.9439    0.0000 C   0  0  0  0  0  0  0  0  0  0  0  0
    4.9675    1.5418    0.0000 O   0  0  0  0  0  0  0  0  0  0  0  0
    1.8653    5.4920    0.0000 C   0  0  0  0  0  0  0  0  0  0  0  0
    0.3942    5.0978    0.0000 C   0  0  0  0  0  0  0  0  0  0  0  0
    0.0000    3.6267    0.0000 C   0  0  0  0  0  0  0  0  0  0  0  0
    1.0768    2.5497    0.0000 C   0  0  0  0  0  0  0  0  0  0  0  0
    6.8548    4.8857    0.0000 R#  0  0  0  0  0  0  0  0  0  0  0  0
    2.2594    6.9631    0.0000 O   0  0  0  0  0  0  0  0  0  0  0  0
    3.2580    1.5230    0.0000 O   0  0  0  0  0  0  0  0  0  0  0  0
    3.2580    0.0000    0.0000 R#  0  0  0  0  0  0  0  0  0  0  0  0
    1.1825    8.0400    0.0000 R#  0  0  0  0  0  0  0  0  0  0  0  0
  1  2  1  0
  2  3  1  0
  3  4  1  0
  5  4  1  6
  5  1  1  0
  5  6  1  0
  2  7  1  6
  7  6  1  0
  5  8  1  0
  8  9  1  0
  9 10  1  0
 10 11  1  0
  6 11  1  6
  3 12  1  1
  8 13  1  6
  1 14  1  6
 14 15  1  0
 13 16  1  0
A   12
R3
A   15
R2
A   16
R1
M  END
>  <symbol>  (922)
trina2

>  <m_abbr>  (922)
trina2

>  <m_type>  (922)
rna

>  <m_subtype>  (922)
natural

>  <m_RgroupIdx>  (922)
15,14,11

>  <m_Rgroups>  (922)
H,H,OH

$$$$

     RDKit          2D

 13 14  0  0  0  0  0  0  0  0999 V2000
    4.0689    4.2992    0.0000 C   0  0  0  0  0  0  0  0  0  0  0  0
    4.4393    2.8219    0.0000 C   0  0  0  0  0  0  0  0  0  0  0  0
    5.9777    2.8086    0.0000 C   0  0  0  0  0  0  0  0  0  0  0  0
    6.5295    4.2596    0.0000 C   0  0  0  0  0  0  0  0  0  0  0  0
    5.3626    5.2365    0.0000 C   0  0  0  0  0  0  0  0  0  0  0  0
    3.9159    1.5230    0.0000 O   0  0  0  0  0  0  0  0  0  0  0  0
    2.6378    4.8201    0.0000 C   0  0  0  0  0  0  0  0  0  0  0  0
    8.0047    4.6381    0.0000 R#  0  0  0  0  0  0  0  0  0  0  0  0
    1.4711    3.8411    0.0000 O   0  0  0  0  0  0  0  0  0  0  0  0
    0.0000    4.2353    0.0000 R#  0  0  0  0  0  0  0  0  0  0  0  0
    3.9159    0.0000    0.0000 R#  0  0  0  0  0  0  0  0  0  0  0  0
    5.5274    3.6475    0.0000 C   0  0  0  0  0  0  0  0  0  0  0  0
    6.8368    1.5510    0.0000 F   0  0  0  0  0  0  0  0  0  0  0  0
  1  2  1  0
  2  3  1  0
  3  4  1  0
  4  5  1  0
  5  1  1  0
  2  6  1  6
  1  7  1  6
  4  8  1  0
  7  9  1  0
  9 10  1  0
  6 11  1  0
  1 12  1  0
  5 12  1  6
  3 13  1  1
A    8
R3
A   10
R1
A   11
R2
M  END
>  <symbol>  (923)
afl2Nmc

>  <m_abbr>  (923)
afl2Nmc

>  <m_type>  (923)
rna

>  <m_subtype>  (923)
natural

>  <m_RgroupIdx>  (923)
9,10,7

>  <m_Rgroups>  (923)
H,H,OH

$$$$

     RDKit          2D

124127  0  0  0  0  0  0  0  0999 V2000
   38.3352   23.7974    0.0000 C   0  0  0  0  0  0  0  0  0  0  0  0
   37.3223   22.6601    0.0000 C   0  0  0  0  0  0  0  0  0  0  0  0
   35.8309   22.9685    0.0000 C   0  0  0  0  0  0  0  0  0  0  0  0
   34.8180   21.8311    0.0000 C   0  0  0  0  0  0  0  0  0  0  0  0
   33.3266   22.1396    0.0000 C   0  0  0  0  0  0  0  0  0  0  0  0
   32.3137   21.0022    0.0000 C   0  0  0  0  0  0  0  0  0  0  0  0
   30.8223   21.3106    0.0000 N   0  0  0  0  0  0  0  0  0  0  0  0
   29.8095   20.1732    0.0000 C   0  0  0  0  0  0  0  0  0  0  0  0
   30.2881   18.7274    0.0000 O   0  0  0  0  0  0  0  0  0  0  0  0
   24.2842   19.0746    0.0000 O   0  0  0  0  0  0  0  0  0  0  0  0
   22.8556   19.2587    0.0000 C   0  0  0  0  0  0  0  0  0  0  0  0
   22.4286   20.6672    0.0000 C   0  0  0  0  0  0  0  0  0  0  0  0
   23.7804   21.1245    0.0000 N   0  0  0  0  0  0  0  0  0  0  0  0
   22.0905   21.8161    0.0000 C   0  0  0  0  0  0  0  0  0  0  0  0
   20.6325   21.9221    0.0000 O   0  0  0  0  0  0  0  0  0  0  0  0
   21.2795   19.6456    0.0000 C   0  0  0  0  0  0  0  0  0  0  0  0
   19.7155   20.0840    0.0000 O   0  0  0  0  0  0  0  0  0  0  0  0
   24.6215   17.6838    0.0000 C   0  0  0  0  0  0  0  0  0  0  0  0
   25.8223   17.2819    0.0000 C   0  0  0  0  0  0  0  0  0  0  0  0
   18.4970   19.1557    0.0000 C   0  0  0  0  0  0  0  0  0  0  0  0
   17.3337   19.5660    0.0000 C   0  0  0  0  0  0  0  0  0  0  0  0
   20.2299   23.2898    0.0000 C   0  0  0  0  0  0  0  0  0  0  0  0
   19.2580   23.3605    0.0000 C   0  0  0  0  0  0  0  0  0  0  0  0
   18.8200   24.2421    0.0000 C   0  0  0  0  0  0  0  0  0  0  0  0
   19.5139   25.2813    0.0000 O   0  0  0  0  0  0  0  0  0  0  0  0
   16.1129   10.0277    0.0000 C   0  0  0  0  0  0  0  0  0  0  0  0
   15.4642    9.1880    0.0000 C   0  0  0  0  0  0  0  0  0  0  0  0
   15.8670    8.2064    0.0000 C   0  0  0  0  0  0  0  0  0  0  0  0
   15.2184    7.3666    0.0000 C   0  0  0  0  0  0  0  0  0  0  0  0
   16.6179   18.7258    0.0000 C   0  0  0  0  0  0  0  0  0  0  0  0
   17.1722   17.3794    0.0000 N   0  0  0  0  0  0  0  0  0  0  0  0
   15.4350   18.8855    0.0000 O   0  0  0  0  0  0  0  0  0  0  0  0
   16.1993   16.1200    0.0000 C   0  0  0  0  0  0  0  0  0  0  0  0
   16.8744   15.1733    0.0000 C   0  0  0  0  0  0  0  0  0  0  0  0
   15.9848   14.0363    0.0000 C   0  0  0  0  0  0  0  0  0  0  0  0
   16.6348   12.9016    0.0000 N   0  0  0  0  0  0  0  0  0  0  0  0
   15.7291   11.1502    0.0000 C   0  0  0  0  0  0  0  0  0  0  0  0
   14.4804   11.3188    0.0000 O   0  0  0  0  0  0  0  0  0  0  0  0
   26.0931   15.9829    0.0000 C   0  0  0  0  0  0  0  0  0  0  0  0
   24.9573   14.9683    0.0000 O   0  0  0  0  0  0  0  0  0  0  0  0
   32.8119    9.6048    0.0000 C   0  0  0  0  0  0  0  0  0  0  0  0
   33.1227    8.1139    0.0000 C   0  0  0  0  0  0  0  0  0  0  0  0
   34.5693    7.6376    0.0000 C   0  0  0  0  0  0  0  0  0  0  0  0
   34.8801    6.1466    0.0000 C   0  0  0  0  0  0  0  0  0  0  0  0
   27.5397   15.5066    0.0000 N   0  0  0  0  0  0  0  0  0  0  0  0
   31.0545   11.5721    0.0000 N   0  0  0  0  0  0  0  0  0  0  0  0
   31.3653   10.0811    0.0000 C   0  0  0  0  0  0  0  0  0  0  0  0
   30.2295    9.0665    0.0000 O   0  0  0  0  0  0  0  0  0  0  0  0
   10.5739   20.0922    0.0000 C   0  0  0  0  0  0  0  0  0  0  0  0
    9.8550   18.7495    0.0000 C   0  0  0  0  0  0  0  0  0  0  0  0
    8.3328   18.7008    0.0000 C   0  0  0  0  0  0  0  0  0  0  0  0
    7.6139   17.3581    0.0000 C   0  0  0  0  0  0  0  0  0  0  0  0
   17.2972   24.2664    0.0000 N   0  0  0  0  0  0  0  0  0  0  0  0
   16.5783   22.9237    0.0000 C   0  0  0  0  0  0  0  0  0  0  0  0
   15.0561   22.8750    0.0000 C   0  0  0  0  0  0  0  0  0  0  0  0
   14.3372   21.5323    0.0000 C   0  0  0  0  0  0  0  0  0  0  0  0
   12.8150   21.4836    0.0000 N   0  0  0  0  0  0  0  0  0  0  0  0
   12.0961   20.1409    0.0000 C   0  0  0  0  0  0  0  0  0  0  0  0
   12.8994   18.8470    0.0000 O   0  0  0  0  0  0  0  0  0  0  0  0
   29.6079   12.0484    0.0000 C   0  0  0  0  0  0  0  0  0  0  0  0
   29.2971   13.5394    0.0000 C   0  0  0  0  0  0  0  0  0  0  0  0
   27.8505   14.0157    0.0000 C   0  0  0  0  0  0  0  0  0  0  0  0
   25.3352   21.0986    0.0000 C   0  0  0  0  0  0  0  0  0  0  0  0
   26.3480   22.2360    0.0000 O   0  0  0  0  0  0  0  0  0  0  0  0
   25.8137   19.6527    0.0000 C   0  0  0  0  0  0  0  0  0  0  0  0
   27.3052   19.3443    0.0000 C   0  0  0  0  0  0  0  0  0  0  0  0
   28.3180   20.4817    0.0000 C   0  0  0  0  0  0  0  0  0  0  0  0
   41.8294   26.8831    0.0000 C   0  0  0  0  0  0  0  0  0  0  0  0
   40.5146   26.1143    0.0000 C   0  0  0  0  0  0  0  0  0  0  0  0
   40.8394   24.6264    0.0000 C   0  0  0  0  0  0  0  0  0  0  0  0
   42.3550   24.4755    0.0000 C   0  0  0  0  0  0  0  0  0  0  0  0
   42.9668   25.8702    0.0000 O   0  0  0  0  0  0  0  0  0  0  0  0
   41.9802   28.3986    0.0000 C   0  0  0  0  0  0  0  0  0  0  0  0
   39.1199   26.7261    0.0000 O   0  0  0  0  0  0  0  0  0  0  0  0
   40.7432   29.2870    0.0000 O   0  0  0  0  0  0  0  0  0  0  0  0
   40.8941   30.8025    0.0000 R#  0  0  0  0  0  0  0  0  0  0  0  0
   37.5374   26.7380    0.0000 R#  0  0  0  0  0  0  0  0  0  0  0  0
   39.8266   23.4890    0.0000 O   0  0  0  0  0  0  0  0  0  0  0  0
   43.1237   23.1608    0.0000 R#  0  0  0  0  0  0  0  0  0  0  0  0
    2.5249   15.4346    0.0000 C   0  0  0  0  0  0  0  0  0  0  0  0
    2.9659   13.9768    0.0000 C   0  0  0  0  0  0  0  0  0  0  0  0
    4.4489   13.6300    0.0000 C   0  0  0  0  0  0  0  0  0  0  0  0
    5.4908   14.7408    0.0000 C   0  0  0  0  0  0  0  0  0  0  0  0
    5.0497   16.1985    0.0000 C   0  0  0  0  0  0  0  0  0  0  0  0
    3.5668   16.5454    0.0000 O   0  0  0  0  0  0  0  0  0  0  0  0
    6.0917   17.3094    0.0000 O   0  0  0  0  0  0  0  0  0  0  0  0
    4.8900   12.1722    0.0000 O   0  0  0  0  0  0  0  0  0  0  0  0
    1.9240   12.8660    0.0000 O   0  0  0  0  0  0  0  0  0  0  0  0
    1.0419   15.7815    0.0000 C   0  0  0  0  0  0  0  0  0  0  0  0
    0.0000   14.6706    0.0000 O   0  0  0  0  0  0  0  0  0  0  0  0
   12.1759    4.2083    0.0000 C   0  0  0  0  0  0  0  0  0  0  0  0
   12.6170    2.7506    0.0000 C   0  0  0  0  0  0  0  0  0  0  0  0
   14.1000    2.4037    0.0000 C   0  0  0  0  0  0  0  0  0  0  0  0
   15.1419    3.5145    0.0000 C   0  0  0  0  0  0  0  0  0  0  0  0
   14.7008    4.9723    0.0000 C   0  0  0  0  0  0  0  0  0  0  0  0
   13.2179    5.3191    0.0000 O   0  0  0  0  0  0  0  0  0  0  0  0
   15.7427    6.0831    0.0000 O   0  0  0  0  0  0  0  0  0  0  0  0
   14.5410    0.9459    0.0000 O   0  0  0  0  0  0  0  0  0  0  0  0
   11.5751    1.6397    0.0000 O   0  0  0  0  0  0  0  0  0  0  0  0
   10.6930    4.5552    0.0000 C   0  0  0  0  0  0  0  0  0  0  0  0
    9.6511    3.4444    0.0000 O   0  0  0  0  0  0  0  0  0  0  0  0
   33.7071    2.6085    0.0000 C   0  0  0  0  0  0  0  0  0  0  0  0
   34.6564    1.4176    0.0000 C   0  0  0  0  0  0  0  0  0  0  0  0
   36.1624    1.6442    0.0000 C   0  0  0  0  0  0  0  0  0  0  0  0
   36.7192    3.0618    0.0000 C   0  0  0  0  0  0  0  0  0  0  0  0
   35.7699    4.2528    0.0000 C   0  0  0  0  0  0  0  0  0  0  0  0
   34.2639    4.0261    0.0000 O   0  0  0  0  0  0  0  0  0  0  0  0
   36.3267    5.6703    0.0000 O   0  0  0  0  0  0  0  0  0  0  0  0
   37.1117    0.4532    0.0000 O   0  0  0  0  0  0  0  0  0  0  0  0
   34.0996    0.0000    0.0000 O   0  0  0  0  0  0  0  0  0  0  0  0
   32.2011    2.3819    0.0000 C   0  0  0  0  0  0  0  0  0  0  0  0
   31.6443    0.9644    0.0000 O   0  0  0  0  0  0  0  0  0  0  0  0
    6.9738   14.3939    0.0000 N   0  0  0  0  0  0  0  0  0  0  0  0
    6.3729   11.8253    0.0000 O   0  0  0  0  0  0  0  0  0  0  0  0
    7.4149   12.9362    0.0000 C   0  0  0  0  0  0  0  0  0  0  0  0
    8.8978   12.5893    0.0000 C   0  0  0  0  0  0  0  0  0  0  0  0
   16.6249    3.1676    0.0000 N   0  0  0  0  0  0  0  0  0  0  0  0
   16.0240    0.5991    0.0000 O   0  0  0  0  0  0  0  0  0  0  0  0
   17.0659    1.7099    0.0000 C   0  0  0  0  0  0  0  0  0  0  0  0
   18.5489    1.3630    0.0000 C   0  0  0  0  0  0  0  0  0  0  0  0
   38.2252    3.2884    0.0000 N   0  0  0  0  0  0  0  0  0  0  0  0
   38.6177    0.6798    0.0000 O   0  0  0  0  0  0  0  0  0  0  0  0
   39.1745    2.0974    0.0000 C   0  0  0  0  0  0  0  0  0  0  0  0
   40.6806    2.3240    0.0000 C   0  0  0  0  0  0  0  0  0  0  0  0
115116  1  0
114115  2  0
113115  1  0
119120  1  0
118119  2  0
117119  1  0
123124  1  0
122123  2  0
121123  1  0
  1 78  1  0
  2  1  1  0
  3  2  1  0
  4  3  1  0
  5  4  1  0
  6  5  1  0
  6  7  1  0
  8  9  2  0
  7  8  1  0
 10 11  1  0
 11 12  1  0
 12 13  1  0
 12 14  1  0
 14 15  1  0
 12 16  1  0
 16 17  1  0
 10 18  1  0
 18 19  1  0
 17 20  1  0
 20 21  1  0
 15 22  1  0
 22 23  1  0
 23 24  1  0
 24 25  2  0
 27 26  1  0
 28 27  1  0
 29 28  1  0
 97 29  1  0
 21 30  1  0
 30 31  1  0
 30 32  2  0
 33 31  1  0
 34 33  1  0
 35 34  1  0
 35 36  1  0
 37 26  1  0
 37 38  2  0
 19 39  1  0
 39 40  2  0
 42 41  1  0
 43 42  1  0
 44 43  1  0
108 44  1  0
 47 41  1  0
 47 48  2  0
 45 39  1  0
 50 49  1  0
 51 50  1  0
 52 51  1  0
 86 52  1  0
 54 53  1  0
 55 54  1  0
 56 55  1  0
 56 57  1  0
 57 58  1  0
 58 49  1  0
 58 59  2  0
 53 24  1  0
 36 37  1  0
 46 47  1  0
 46 60  1  0
 60 61  1  0
 61 62  1  0
 62 45  1  0
 63 64  2  0
 63 65  1  0
 65 66  1  0
 66 67  1  0
  8 67  1  0
 68 69  1  0
 69 70  1  0
 70 71  1  0
 71 72  1  0
 72 68  1  0
 68 73  1  1
 69 74  1  6
 73 75  1  0
 75 76  1  0
 74 77  1  0
 70 78  1  6
 71 79  1  1
 80 81  1  0
 81 82  1  0
 82 83  1  0
 83 84  1  0
 84 85  1  0
 85 80  1  0
 84 86  1  1
 82 87  1  1
 81 88  1  1
 80 89  1  1
 89 90  1  0
 83113  1  6
 91 92  1  0
 92 93  1  0
 93 94  1  0
 94 95  1  0
 95 96  1  0
 96 91  1  0
 95 97  1  1
 93 98  1  1
 92 99  1  1
 91100  1  1
100101  1  0
 94117  1  6
102103  1  0
103104  1  0
104105  1  0
105106  1  0
106107  1  0
107102  1  0
106108  1  1
104109  1  1
103110  1  1
102111  1  1
111112  1  0
105121  1  6
 63 13  1  0
A   76
R1
A   77
R2
A   79
R3
M  END
>  <symbol>  (924)
GalNAc3C62r

>  <m_abbr>  (924)
GalNAc3C62r

>  <m_type>  (924)
rna

>  <m_subtype>  (924)
natural

>  <m_RgroupIdx>  (924)
75,76,78

>  <m_Rgroups>  (924)
H,H,OH

$$$$

     RDKit          2D

 16 15  0  0  0  0  0  0  0  0999 V2000
    1.3189    0.0000    0.0000 O   0  0  0  0  0  0  0  0  0  0  0  0
    2.6378    0.7616    0.0000 C   0  0  0  0  0  0  0  0  0  0  0  0
    3.9567    0.0000    0.0000 C   0  0  0  0  0  0  0  0  0  0  0  0
    5.2756    0.7616    0.0000 C   0  0  0  0  0  0  0  0  0  0  0  0
    6.5943    0.0000    0.0000 C   0  0  0  0  0  0  0  0  0  0  0  0
    7.9132    0.7616    0.0000 C   0  0  0  0  0  0  0  0  0  0  0  0
    9.2321    0.0000    0.0000 C   0  0  0  0  0  0  0  0  0  0  0  0
   10.5508    0.7616    0.0000 C   0  0  0  0  0  0  0  0  0  0  0  0
   11.8697    0.0000    0.0000 C   0  0  0  0  0  0  0  0  0  0  0  0
   13.1886    0.7616    0.0000 C   0  0  0  0  0  0  0  0  0  0  0  0
   14.5073    0.0000    0.0000 C   0  0  0  0  0  0  0  0  0  0  0  0
   15.8262    0.7616    0.0000 C   0  0  0  0  0  0  0  0  0  0  0  0
   17.1451    0.0000    0.0000 C   0  0  0  0  0  0  0  0  0  0  0  0
   18.4639    0.7616    0.0000 O   0  0  0  0  0  0  0  0  0  0  0  0
    0.0000    0.7615    0.0000 R#  0  0  0  0  0  0  0  0  0  0  0  0
   19.7829    0.0001    0.0000 R#  0  0  0  0  0  0  0  0  0  0  0  0
  2  1  1  0
  3  2  1  0
  4  3  1  0
  5  4  1  0
  6  5  1  0
  7  6  1  0
  8  7  1  0
  9  8  1  0
 10  9  1  0
 11 10  1  0
 12 11  1  0
 13 12  1  0
 14 13  1  0
  1 15  1  0
 14 16  1  0
A   15
R1
A   16
R2
M  END
>  <symbol>  (925)
oC12o

>  <m_abbr>  (925)
oC12o

>  <m_type>  (925)
rna

>  <m_subtype>  (925)
natural

>  <m_RgroupIdx>  (925)
14,15

>  <m_Rgroups>  (925)
H,H

$$$$

     RDKit          2D

 12 12  0  0  0  0  0  0  0  0999 V2000
    2.5903    4.1942    0.0000 C   0  0  0  0  0  0  0  0  0  0  0  0
    3.0332    2.7370    0.0000 C   0  0  0  0  0  0  0  0  0  0  0  0
    4.5560    2.7080    0.0000 C   0  0  0  0  0  0  0  0  0  0  0  0
    5.0541    4.1473    0.0000 C   0  0  0  0  0  0  0  0  0  0  0  0
    3.8392    5.0657    0.0000 O   0  0  0  0  0  0  0  0  0  0  0  0
    1.1510    4.6923    0.0000 C   0  0  0  0  0  0  0  0  0  0  0  0
    2.1148    1.5221    0.0000 O   0  0  0  0  0  0  0  0  0  0  0  0
    0.0000    3.6949    0.0000 R#  0  0  0  0  0  0  0  0  0  0  0  0
    2.1655    0.0000    0.0000 R#  0  0  0  0  0  0  0  0  0  0  0  0
    6.5112    4.5903    0.0000 R#  0  0  0  0  0  0  0  0  0  0  0  0
    5.4276    1.4591    0.0000 O   0  0  0  0  0  0  0  0  0  0  0  0
    6.8987    1.0649    0.0000 C   0  0  0  0  0  0  0  0  0  0  0  0
  1  2  1  0
  2  3  1  0
  3  4  1  0
  4  5  1  0
  5  1  1  0
  1  6  1  1
  2  7  1  6
  6  8  1  0
  7  9  1  0
  4 10  1  1
  3 11  1  6
 11 12  1  0
A    8
R1
A    9
R2
A   10
R3
M  END
>  <symbol>  (926)
d5m

>  <m_abbr>  (926)
d5m

>  <m_type>  (926)
rna

>  <m_subtype>  (926)
natural

>  <m_RgroupIdx>  (926)
7,8,9

>  <m_Rgroups>  (926)
H,H,OH

$$$$

     RDKit          2D

 16 17  0  0  0  0  0  0  0  0999 V2000
    1.3587    8.8208    0.0000 R#  0  0  0  0  0  0  0  0  0  0  0  0
    1.3587    7.2978    0.0000 P   0  0  0  0  0  0  0  0  0  0  0  0
    0.0000    6.2984    0.0000 O   0  0  0  0  0  0  0  0  0  0  0  0
    0.0397    5.0133    0.0000 C   0  0  0  0  0  0  0  0  0  0  0  0
    1.3587    4.2519    0.0000 C   0  0  0  0  0  0  0  0  0  0  0  0
    2.6775    5.0133    0.0000 C   0  0  0  0  0  0  0  0  0  0  0  0
    2.6775    6.5363    0.0000 O   0  0  0  0  0  0  0  0  0  0  0  0
    4.4748    2.7552    0.0000 C   0  0  0  0  0  0  0  0  0  0  0  0
    5.9978    2.7552    0.0000 C   0  0  0  0  0  0  0  0  0  0  0  0
    6.4686    4.2037    0.0000 C   0  0  0  0  0  0  0  0  0  0  0  0
    5.2363    5.0988    0.0000 O   0  0  0  0  0  0  0  0  0  0  0  0
    4.0043    4.2037    0.0000 C   0  0  0  0  0  0  0  0  0  0  0  0
    0.1628    8.4540    0.0000 O   0  0  0  0  0  0  0  0  0  0  0  0
    3.5797    1.5230    0.0000 O   0  0  0  0  0  0  0  0  0  0  0  0
    7.9170    4.6742    0.0000 R#  0  0  0  0  0  0  0  0  0  0  0  0
    3.5797    0.0000    0.0000 R#  0  0  0  0  0  0  0  0  0  0  0  0
  2  1  1  6
  2  3  1  0
  3  4  1  0
  4  5  1  0
  6  5  1  6
  6  7  1  0
  7  2  1  0
  8  9  1  0
  9 10  1  0
 10 11  1  0
 12 11  1  1
 12  8  1  0
 12  6  1  0
  2 13  2  0
  8 14  1  6
 10 15  1  1
 14 16  1  0
A    1
R1
A   15
R3
A   16
R2
M  END
>  <symbol>  (927)
SRpabCNA

>  <m_abbr>  (927)
SRpabCNA

>  <m_type>  (927)
rna

>  <m_subtype>  (927)
natural

>  <m_RgroupIdx>  (927)
0,15,14

>  <m_Rgroups>  (927)
H,H,OH

$$$$

     RDKit          2D

 40 40  0  0  0  0  0  0  0  0999 V2000
    3.9182   20.0222    0.0000 C   0  0  0  0  0  0  0  0  0  0  0  0
    4.2956   18.5467    0.0000 C   0  0  0  0  0  0  0  0  0  0  0  0
    5.8340   18.5407    0.0000 C   0  0  0  0  0  0  0  0  0  0  0  0
    6.3770   19.9892    0.0000 C   0  0  0  0  0  0  0  0  0  0  0  0
    5.2073   20.9656    0.0000 O   0  0  0  0  0  0  0  0  0  0  0  0
    3.3549   17.3490    0.0000 O   0  0  0  0  0  0  0  0  0  0  0  0
    2.4846   20.5362    0.0000 C   0  0  0  0  0  0  0  0  0  0  0  0
    7.8523   20.3798    0.0000 R#  0  0  0  0  0  0  0  0  0  0  0  0
    1.3226   19.5517    0.0000 O   0  0  0  0  0  0  0  0  0  0  0  0
    0.0000   20.3069    0.0000 R#  0  0  0  0  0  0  0  0  0  0  0  0
    3.3621   15.8260    0.0000 R#  0  0  0  0  0  0  0  0  0  0  0  0
    6.6543   17.2581    0.0000 O   0  0  0  0  0  0  0  0  0  0  0  0
   10.4681   15.9573    0.0000 C   0  0  0  0  0  0  0  0  0  0  0  0
    8.9451   15.9501    0.0000 C   0  0  0  0  0  0  0  0  0  0  0  0
    8.1773   17.2654    0.0000 C   0  0  0  0  0  0  0  0  0  0  0  0
   11.2359   14.6420    0.0000 C   0  0  0  0  0  0  0  0  0  0  0  0
   12.7588   14.6493    0.0000 C   0  0  0  0  0  0  0  0  0  0  0  0
   13.5266   13.3340    0.0000 C   0  0  0  0  0  0  0  0  0  0  0  0
   15.8264   12.0312    0.0000 C   0  0  0  0  0  0  0  0  0  0  0  0
   17.3493   12.0489    0.0000 C   0  0  0  0  0  0  0  0  0  0  0  0
   18.1260   10.7389    0.0000 C   0  0  0  0  0  0  0  0  0  0  0  0
   19.6489   10.7565    0.0000 C   0  0  0  0  0  0  0  0  0  0  0  0
   20.4256    9.4465    0.0000 C   0  0  0  0  0  0  0  0  0  0  0  0
   21.7533    8.7003    0.0000 C   0  0  0  0  0  0  0  0  0  0  0  0
   23.2762    8.7180    0.0000 C   0  0  0  0  0  0  0  0  0  0  0  0
   24.0530    7.4079    0.0000 C   0  0  0  0  0  0  0  0  0  0  0  0
   25.3807    6.6618    0.0000 C   0  0  0  0  0  0  0  0  0  0  0  0
   26.9036    6.6795    0.0000 C   0  0  0  0  0  0  0  0  0  0  0  0
   27.6803    5.3694    0.0000 C   0  0  0  0  0  0  0  0  0  0  0  0
   29.0080    4.6233    0.0000 C   0  0  0  0  0  0  0  0  0  0  0  0
   30.5309    4.6409    0.0000 C   0  0  0  0  0  0  0  0  0  0  0  0
   31.3077    3.3309    0.0000 C   0  0  0  0  0  0  0  0  0  0  0  0
   32.6354    2.5847    0.0000 C   0  0  0  0  0  0  0  0  0  0  0  0
   34.1583    2.6024    0.0000 C   0  0  0  0  0  0  0  0  0  0  0  0
   34.9350    1.2924    0.0000 C   0  0  0  0  0  0  0  0  0  0  0  0
   36.4579    1.3100    0.0000 C   0  0  0  0  0  0  0  0  0  0  0  0
   37.2346    0.0000    0.0000 C   0  0  0  0  0  0  0  0  0  0  0  0
   38.7575    0.0176    0.0000 C   0  0  0  0  0  0  0  0  0  0  0  0
   15.0802   10.7035    0.0000 O   0  0  0  0  0  0  0  0  0  0  0  0
   15.0496   13.3413    0.0000 N   0  0  0  0  0  0  0  0  0  0  0  0
  1  2  1  0
  2  3  1  0
  3  4  1  0
  4  5  1  0
  5  1  1  0
  2  6  1  6
  3 12  1  6
  1  7  1  1
  4  8  1  1
  7  9  1  0
  9 10  1  0
  6 11  1  0
 14 15  1  0
 13 14  1  0
 12 15  1  0
 13 16  1  0
 16 17  1  0
 17 18  1  0
 18 40  1  0
 19 20  1  0
 20 21  1  0
 21 22  1  0
 22 23  1  0
 23 24  2  0
 24 25  1  0
 25 26  1  0
 26 27  2  0
 27 28  1  0
 28 29  1  0
 29 30  2  0
 30 31  1  0
 31 32  1  0
 32 33  2  0
 33 34  1  0
 34 35  1  0
 35 36  1  0
 36 37  1  0
 37 38  1  0
 19 39  2  0
 19 40  1  0
A    8
R3
A   10
R1
A   11
R2
M  END
>  <symbol>  (928)
arachidonoylnC62r

>  <m_abbr>  (928)
arachidonoylnC62r

>  <m_type>  (928)
rna

>  <m_subtype>  (928)
natural

>  <m_RgroupIdx>  (928)
9,10,7

>  <m_Rgroups>  (928)
H,H,OH

$$$$

     RDKit          2D

 13 14  0  0  0  0  0  0  0  0999 V2000
    4.0690    4.2992    0.0000 C   0  0  0  0  0  0  0  0  0  0  0  0
    4.4394    2.8219    0.0000 C   0  0  0  0  0  0  0  0  0  0  0  0
    5.9777    2.8086    0.0000 C   0  0  0  0  0  0  0  0  0  0  0  0
    6.5295    4.2595    0.0000 C   0  0  0  0  0  0  0  0  0  0  0  0
    5.3626    5.2365    0.0000 C   0  0  0  0  0  0  0  0  0  0  0  0
    3.9159    1.5230    0.0000 O   0  0  0  0  0  0  0  0  0  0  0  0
    2.6378    4.8201    0.0000 C   0  0  0  0  0  0  0  0  0  0  0  0
    8.0047    4.6381    0.0000 R#  0  0  0  0  0  0  0  0  0  0  0  0
    1.4711    3.8411    0.0000 O   0  0  0  0  0  0  0  0  0  0  0  0
    0.0000    4.2353    0.0000 R#  0  0  0  0  0  0  0  0  0  0  0  0
    3.9159    0.0000    0.0000 R#  0  0  0  0  0  0  0  0  0  0  0  0
    5.5275    3.6475    0.0000 C   0  0  0  0  0  0  0  0  0  0  0  0
    6.8369    1.5510    0.0000 F   0  0  0  0  0  0  0  0  0  0  0  0
  1  2  1  0
  2  3  1  0
  3  4  1  0
  4  5  1  0
  5  1  1  0
  2  6  1  6
  1  7  1  6
  4  8  1  0
  7  9  1  0
  9 10  1  0
  6 11  1  0
  1 12  1  0
  5 12  1  6
  3 13  1  6
A    8
R3
A   10
R1
A   11
R2
M  END
>  <symbol>  (929)
fl2Nmc

>  <m_abbr>  (929)
fl2Nmc

>  <m_type>  (929)
rna

>  <m_subtype>  (929)
natural

>  <m_RgroupIdx>  (929)
9,10,7

>  <m_Rgroups>  (929)
H,H,OH

$$$$

     RDKit          2D

 16 18  0  0  0  0  0  0  0  0999 V2000
    3.4128    2.9666    0.0000 C   0  0  0  0  0  0  0  0  0  0  0  0
    4.9358    2.9666    0.0000 C   0  0  0  0  0  0  0  0  0  0  0  0
    5.4064    4.4150    0.0000 C   0  0  0  0  0  0  0  0  0  0  0  0
    4.1743    5.3101    0.0000 O   0  0  0  0  0  0  0  0  0  0  0  0
    2.9421    4.4150    0.0000 C   0  0  0  0  0  0  0  0  0  0  0  0
    2.5479    2.9438    0.0000 C   0  0  0  0  0  0  0  0  0  0  0  0
    4.9675    1.5418    0.0000 O   0  0  0  0  0  0  0  0  0  0  0  0
    1.8653    5.4920    0.0000 C   0  0  0  0  0  0  0  0  0  0  0  0
    0.3941    5.0978    0.0000 C   0  0  0  0  0  0  0  0  0  0  0  0
    0.0000    3.6267    0.0000 C   0  0  0  0  0  0  0  0  0  0  0  0
    1.0768    2.5497    0.0000 C   0  0  0  0  0  0  0  0  0  0  0  0
    6.8548    4.8857    0.0000 R#  0  0  0  0  0  0  0  0  0  0  0  0
    2.2594    6.9631    0.0000 O   0  0  0  0  0  0  0  0  0  0  0  0
    3.2580    1.5230    0.0000 O   0  0  0  0  0  0  0  0  0  0  0  0
    3.2580    0.0000    0.0000 R#  0  0  0  0  0  0  0  0  0  0  0  0
    1.1825    8.0400    0.0000 R#  0  0  0  0  0  0  0  0  0  0  0  0
  1  2  1  0
  2  3  1  0
  3  4  1  0
  5  4  1  6
  5  1  1  0
  5  6  1  0
  2  7  1  6
  7  6  1  0
  5  8  1  0
  8  9  1  0
  9 10  1  0
 10 11  1  0
  6 11  1  1
  3 12  1  1
  8 13  1  1
  1 14  1  6
 14 15  1  0
 13 16  1  0
A   12
R3
A   15
R2
A   16
R1
M  END
>  <symbol>  (930)
trina1

>  <m_abbr>  (930)
trina1

>  <m_type>  (930)
rna

>  <m_subtype>  (930)
natural

>  <m_RgroupIdx>  (930)
15,14,11

>  <m_Rgroups>  (930)
H,H,OH

$$$$

     RDKit          2D

 11 11  0  0  0  0  0  0  0  0999 V2000
    2.5902    4.1942    0.0000 C   0  0  0  0  0  0  0  0  0  0  0  0
    3.0332    2.7371    0.0000 C   0  0  0  0  0  0  0  0  0  0  0  0
    4.5560    2.7081    0.0000 C   0  0  0  0  0  0  0  0  0  0  0  0
    5.0541    4.1473    0.0000 C   0  0  0  0  0  0  0  0  0  0  0  0
    3.8392    5.0658    0.0000 O   0  0  0  0  0  0  0  0  0  0  0  0
    1.1510    4.6923    0.0000 C   0  0  0  0  0  0  0  0  0  0  0  0
    2.1148    1.5222    0.0000 N   0  0  0  0  0  0  0  0  0  0  0  0
    0.0000    3.6950    0.0000 R#  0  0  0  0  0  0  0  0  0  0  0  0
    2.1655    0.0000    0.0000 R#  0  0  0  0  0  0  0  0  0  0  0  0
    6.5112    4.5903    0.0000 R#  0  0  0  0  0  0  0  0  0  0  0  0
    0.8628    6.1878    0.0000 O   0  0  0  0  0  0  0  0  0  0  0  0
  1  2  1  0
  2  3  1  0
  3  4  1  0
  4  5  1  0
  5  1  1  0
  1  6  1  1
  2  7  1  6
  6  8  1  0
  7  9  1  0
  4 10  1  1
  6 11  2  0
A    8
R1
A    9
R2
A   10
R3
M  END
>  <symbol>  (931)
n3co4d

>  <m_abbr>  (931)
n3co4d

>  <m_type>  (931)
rna

>  <m_subtype>  (931)
natural

>  <m_RgroupIdx>  (931)
7,8,9

>  <m_Rgroups>  (931)
H,H,OH

$$$$

     RDKit          2D

 13 13  0  0  0  0  0  0  0  0999 V2000
    4.0295    4.1942    0.0000 C   0  0  0  0  0  0  0  0  0  0  0  0
    4.4724    2.7370    0.0000 C   0  0  0  0  0  0  0  0  0  0  0  0
    5.9952    2.7080    0.0000 C   0  0  0  0  0  0  0  0  0  0  0  0
    6.4933    4.1473    0.0000 C   0  0  0  0  0  0  0  0  0  0  0  0
    5.2784    5.0657    0.0000 O   0  0  0  0  0  0  0  0  0  0  0  0
    2.5902    4.6923    0.0000 C   0  0  0  0  0  0  0  0  0  0  0  0
    3.5540    1.5221    0.0000 C   0  0  0  0  0  0  0  0  0  0  0  0
    1.4392    3.6949    0.0000 O   0  0  0  0  0  0  0  0  0  0  0  0
    0.0000    4.1930    0.0000 R#  0  0  0  0  0  0  0  0  0  0  0  0
    3.6047    0.0000    0.0000 R#  0  0  0  0  0  0  0  0  0  0  0  0
    7.9504    4.5903    0.0000 R#  0  0  0  0  0  0  0  0  0  0  0  0
    6.8668    1.4591    0.0000 O   0  0  0  0  0  0  0  0  0  0  0  0
    8.3842    1.5894    0.0000 C   0  0  0  0  0  0  0  0  0  0  0  0
  1  2  1  0
  2  3  1  0
  3  4  1  0
  4  5  1  0
  5  1  1  0
  1  6  1  1
  2  7  1  6
  6  8  1  0
  8  9  1  0
  7 10  1  0
  4 11  1  1
  3 12  1  6
 12 13  1  0
A    9
R1
A   10
R2
A   11
R3
M  END
>  <symbol>  (932)
me3m

>  <m_abbr>  (932)
me3m

>  <m_type>  (932)
rna

>  <m_subtype>  (932)
natural

>  <m_RgroupIdx>  (932)
8,9,10

>  <m_Rgroups>  (932)
H,OH,OH

$$$$

     RDKit          2D

 12 12  0  0  0  0  0  0  0  0999 V2000
    4.0295    4.1941    0.0000 C   0  0  0  0  0  0  0  0  0  0  0  0
    4.4725    2.7370    0.0000 C   0  0  0  0  0  0  0  0  0  0  0  0
    5.9952    2.7080    0.0000 C   0  0  0  0  0  0  0  0  0  0  0  0
    6.4933    4.1473    0.0000 C   0  0  0  0  0  0  0  0  0  0  0  0
    5.2784    5.0657    0.0000 O   0  0  0  0  0  0  0  0  0  0  0  0
    2.5902    4.6922    0.0000 C   0  0  0  0  0  0  0  0  0  0  0  0
    3.5540    1.5221    0.0000 O   0  0  0  0  0  0  0  0  0  0  0  0
    1.4393    3.6949    0.0000 O   0  0  0  0  0  0  0  0  0  0  0  0
    0.0000    4.1930    0.0000 R#  0  0  0  0  0  0  0  0  0  0  0  0
    3.6047    0.0000    0.0000 R#  0  0  0  0  0  0  0  0  0  0  0  0
    6.8668    1.4591    0.0000 O   0  0  0  0  0  0  0  0  0  0  0  0
    7.9505    4.5902    0.0000 R#  0  0  0  0  0  0  0  0  0  0  0  0
  1  2  1  0
  2  3  1  0
  3  4  1  0
  4  5  1  0
  5  1  1  0
  1  6  1  1
  2  7  1  6
  6  8  1  0
  8  9  1  0
  7 10  1  0
  3 11  1  1
  4 12  1  1
A    9
R1
A   10
R2
A   12
R3
M  END
>  <symbol>  (933)
ar

>  <m_abbr>  (933)
ar

>  <m_type>  (933)
rna

>  <m_subtype>  (933)
natural

>  <m_RgroupIdx>  (933)
8,9,11

>  <m_Rgroups>  (933)
H,H,OH

$$$$

     RDKit          2D

 13 12  0  0  0  0  0  0  0  0999 V2000
    3.1559    4.9578    0.0000 C   0  0  0  0  0  0  0  0  0  0  0  0
    3.5415    3.4864    0.0000 N   0  0  0  0  0  0  0  0  0  0  0  0
    5.0789    3.4915    0.0000 C   0  0  0  0  0  0  0  0  0  0  0  0
    5.6142    4.9477    0.0000 C   0  0  0  0  0  0  0  0  0  0  0  0
    2.6105    2.2839    0.0000 C   0  0  0  0  0  0  0  0  0  0  0  0
    1.7175    5.4627    0.0000 C   0  0  0  0  0  0  0  0  0  0  0  0
    7.0831    5.3434    0.0000 R#  0  0  0  0  0  0  0  0  0  0  0  0
    1.4359    6.9594    0.0000 N   0  0  0  0  0  0  0  0  0  0  0  0
    2.6105    0.7617    0.0000 C   0  0  0  0  0  0  0  0  0  0  0  0
    3.9297    0.0007    0.0000 R#  0  0  0  0  0  0  0  0  0  0  0  0
    0.0000    7.4617    0.0000 R#  0  0  0  0  0  0  0  0  0  0  0  0
    5.9525    2.2439    0.0000 O   0  0  0  0  0  0  0  0  0  0  0  0
    1.2917    0.0000    0.0000 O   0  0  0  0  0  0  0  0  0  0  0  0
  1  2  1  0
  2  3  1  0
  3  4  1  0
  2  5  1  0
  1  6  1  0
  4  7  1  0
  6  8  1  0
  5  9  1  0
  9 10  1  0
  8 11  1  0
  3 12  2  0
  9 13  2  0
A    7
R3
A   10
R2
A   11
R1
M  END
>  <symbol>  (934)
pna

>  <m_abbr>  (934)
pna

>  <m_type>  (934)
rna

>  <m_subtype>  (934)
natural

>  <m_RgroupIdx>  (934)
10,9,6

>  <m_Rgroups>  (934)
H,OH,OH

$$$$

     RDKit          2D

 18 17  0  0  0  0  0  0  0  0999 V2000
    5.9250    4.9578    0.0000 C   0  0  0  0  0  0  0  0  0  0  0  0
    6.3106    3.4864    0.0000 N   0  0  0  0  0  0  0  0  0  0  0  0
    7.8480    3.4915    0.0000 C   0  0  0  0  0  0  0  0  0  0  0  0
    8.3833    4.9477    0.0000 C   0  0  0  0  0  0  0  0  0  0  0  0
    4.4866    5.4627    0.0000 C   0  0  0  0  0  0  0  0  0  0  0  0
    9.8521    5.3434    0.0000 R#  0  0  0  0  0  0  0  0  0  0  0  0
    4.2050    6.9594    0.0000 N   0  0  0  0  0  0  0  0  0  0  0  0
    5.3795    0.7617    0.0000 C   0  0  0  0  0  0  0  0  0  0  0  0
    6.6987    0.0007    0.0000 R#  0  0  0  0  0  0  0  0  0  0  0  0
    2.7691    7.4617    0.0000 R#  0  0  0  0  0  0  0  0  0  0  0  0
    8.7216    2.2439    0.0000 O   0  0  0  0  0  0  0  0  0  0  0  0
    4.0607    0.0000    0.0000 O   0  0  0  0  0  0  0  0  0  0  0  0
    5.3795    2.2839    0.0000 C   0  0  0  0  0  0  0  0  0  0  0  0
    3.8924    2.6124    0.0000 C   0  0  0  0  0  0  0  0  0  0  0  0
    3.4334    4.0646    0.0000 C   0  0  0  0  0  0  0  0  0  0  0  0
    1.9462    4.3931    0.0000 C   0  0  0  0  0  0  0  0  0  0  0  0
    1.4871    5.8453    0.0000 C   0  0  0  0  0  0  0  0  0  0  0  0
    0.0000    6.1738    0.0000 N   0  0  0  0  0  0  0  0  0  0  0  0
  1  2  1  0
  2  3  1  0
  3  4  1  0
  2 13  1  0
  1  5  1  0
  4  6  1  0
  5  7  1  0
 13  8  1  0
  8  9  1  0
  7 10  1  0
  3 11  2  0
  8 12  2  0
 13 14  1  1
 14 15  1  0
 15 16  1  0
 16 17  1  0
 17 18  1  0
A    6
R3
A    9
R2
A   10
R1
M  END
>  <symbol>  (935)
Dlyspna

>  <m_abbr>  (935)
Dlyspna

>  <m_type>  (935)
rna

>  <m_subtype>  (935)
natural

>  <m_RgroupIdx>  (935)
9,8,5

>  <m_Rgroups>  (935)
H,OH,OH

$$$$

     RDKit          2D

 18 17  0  0  0  0  0  0  0  0999 V2000
    5.9250    4.9578    0.0000 C   0  0  0  0  0  0  0  0  0  0  0  0
    6.3106    3.4864    0.0000 N   0  0  0  0  0  0  0  0  0  0  0  0
    7.8480    3.4915    0.0000 C   0  0  0  0  0  0  0  0  0  0  0  0
    8.3833    4.9477    0.0000 C   0  0  0  0  0  0  0  0  0  0  0  0
    4.4866    5.4627    0.0000 C   0  0  0  0  0  0  0  0  0  0  0  0
    9.8521    5.3434    0.0000 R#  0  0  0  0  0  0  0  0  0  0  0  0
    4.2050    6.9594    0.0000 N   0  0  0  0  0  0  0  0  0  0  0  0
    5.3795    0.7617    0.0000 C   0  0  0  0  0  0  0  0  0  0  0  0
    6.6987    0.0007    0.0000 R#  0  0  0  0  0  0  0  0  0  0  0  0
    2.7691    7.4617    0.0000 R#  0  0  0  0  0  0  0  0  0  0  0  0
    8.7216    2.2439    0.0000 O   0  0  0  0  0  0  0  0  0  0  0  0
    4.0607    0.0000    0.0000 O   0  0  0  0  0  0  0  0  0  0  0  0
    5.3795    2.2839    0.0000 C   0  0  0  0  0  0  0  0  0  0  0  0
    3.8924    2.6124    0.0000 C   0  0  0  0  0  0  0  0  0  0  0  0
    3.4334    4.0646    0.0000 C   0  0  0  0  0  0  0  0  0  0  0  0
    1.9462    4.3931    0.0000 C   0  0  0  0  0  0  0  0  0  0  0  0
    1.4871    5.8453    0.0000 C   0  0  0  0  0  0  0  0  0  0  0  0
    0.0000    6.1738    0.0000 N   0  0  0  0  0  0  0  0  0  0  0  0
  1  2  1  0
  2  3  1  0
  3  4  1  0
  2 13  1  0
  1  5  1  0
  4  6  1  0
  5  7  1  0
 13  8  1  0
  8  9  1  0
  7 10  1  0
  3 11  2  0
  8 12  2  0
 13 14  1  6
 14 15  1  0
 15 16  1  0
 16 17  1  0
 17 18  1  0
A    6
R3
A    9
R2
A   10
R1
M  END
>  <symbol>  (936)
Llyspna

>  <m_abbr>  (936)
Llyspna

>  <m_type>  (936)
rna

>  <m_subtype>  (936)
natural

>  <m_RgroupIdx>  (936)
9,8,5

>  <m_Rgroups>  (936)
H,OH,OH

$$$$

     RDKit          2D

 11 11  0  0  0  0  0  0  0  0999 V2000
    4.0294    4.1942    0.0000 C   0  0  0  0  0  0  0  0  0  0  0  0
    4.4724    2.7370    0.0000 C   0  0  0  0  0  0  0  0  0  0  0  0
    5.9952    2.7080    0.0000 C   0  0  0  0  0  0  0  0  0  0  0  0
    6.4933    4.1473    0.0000 C   0  0  0  0  0  0  0  0  0  0  0  0
    5.2784    5.0657    0.0000 O   0  0  0  0  0  0  0  0  0  0  0  0
    2.5902    4.6923    0.0000 C   0  0  0  0  0  0  0  0  0  0  0  0
    3.5539    1.5221    0.0000 C   0  0  0  0  0  0  0  0  0  0  0  0
    1.4392    3.6949    0.0000 O   0  0  0  0  0  0  0  0  0  0  0  0
    0.0000    4.1930    0.0000 R#  0  0  0  0  0  0  0  0  0  0  0  0
    3.6047    0.0000    0.0000 R#  0  0  0  0  0  0  0  0  0  0  0  0
    7.9504    4.5903    0.0000 R#  0  0  0  0  0  0  0  0  0  0  0  0
  1  2  1  0
  2  3  1  0
  3  4  1  0
  4  5  1  0
  5  1  1  0
  1  6  1  1
  2  7  1  6
  6  8  1  0
  8  9  1  0
  7 10  1  0
  4 11  1  1
A    9
R1
A   10
R2
A   11
R3
M  END
>  <symbol>  (937)
me3d

>  <m_abbr>  (937)
me3d

>  <m_type>  (937)
rna

>  <m_subtype>  (937)
natural

>  <m_RgroupIdx>  (937)
8,9,10

>  <m_Rgroups>  (937)
H,OH,OH

$$$$

     RDKit          2D

 11 11  0  0  0  0  0  0  0  0999 V2000
    4.0294    4.1942    0.0000 C   0  0  0  0  0  0  0  0  0  0  0  0
    4.4724    2.7370    0.0000 C   0  0  0  0  0  0  0  0  0  0  0  0
    5.9952    2.7080    0.0000 C   0  0  0  0  0  0  0  0  0  0  0  0
    6.4933    4.1473    0.0000 C   0  0  0  0  0  0  0  0  0  0  0  0
    5.2784    5.0657    0.0000 O   0  0  0  0  0  0  0  0  0  0  0  0
    2.5902    4.6923    0.0000 C   0  0  0  0  0  0  0  0  0  0  0  0
    3.5539    1.5221    0.0000 N   0  0  0  0  0  0  0  0  0  0  0  0
    1.4392    3.6949    0.0000 O   0  0  0  0  0  0  0  0  0  0  0  0
    0.0000    4.1930    0.0000 R#  0  0  0  0  0  0  0  0  0  0  0  0
    3.6047    0.0000    0.0000 R#  0  0  0  0  0  0  0  0  0  0  0  0
    7.9504    4.5903    0.0000 R#  0  0  0  0  0  0  0  0  0  0  0  0
  1  2  1  0
  2  3  1  0
  3  4  1  0
  4  5  1  0
  5  1  1  0
  1  6  1  1
  2  7  1  6
  6  8  1  0
  8  9  1  0
  7 10  1  0
  4 11  1  1
A    9
R1
A   10
R2
A   11
R3
M  END
>  <symbol>  (938)
n3d

>  <m_abbr>  (938)
n3d

>  <m_type>  (938)
rna

>  <m_subtype>  (938)
natural

>  <m_RgroupIdx>  (938)
8,9,10

>  <m_Rgroups>  (938)
H,H,OH

$$$$

     RDKit          2D

 11 11  0  0  0  0  0  0  0  0999 V2000
    4.0295    4.1942    0.0000 C   0  0  0  0  0  0  0  0  0  0  0  0
    4.4725    2.7370    0.0000 C   0  0  0  0  0  0  0  0  0  0  0  0
    5.9952    2.7080    0.0000 C   0  0  0  0  0  0  0  0  0  0  0  0
    6.4933    4.1473    0.0000 C   0  0  0  0  0  0  0  0  0  0  0  0
    5.2784    5.0657    0.0000 O   0  0  0  0  0  0  0  0  0  0  0  0
    2.5903    4.6923    0.0000 C   0  0  0  0  0  0  0  0  0  0  0  0
    3.5540    1.5221    0.0000 O   0  0  0  0  0  0  0  0  0  0  0  0
    1.4393    3.6949    0.0000 N   0  0  0  0  0  0  0  0  0  0  0  0
    0.0000    4.1930    0.0000 R#  0  0  0  0  0  0  0  0  0  0  0  0
    3.6048    0.0000    0.0000 R#  0  0  0  0  0  0  0  0  0  0  0  0
    7.9505    4.5903    0.0000 R#  0  0  0  0  0  0  0  0  0  0  0  0
  1  2  1  0
  2  3  1  0
  3  4  1  0
  4  5  1  0
  5  1  1  0
  1  6  1  1
  2  7  1  6
  6  8  1  0
  8  9  1  0
  7 10  1  0
  4 11  1  1
A    9
R1
A   10
R2
A   11
R3
M  END
>  <symbol>  (939)
n5d

>  <m_abbr>  (939)
n5d

>  <m_type>  (939)
rna

>  <m_subtype>  (939)
natural

>  <m_RgroupIdx>  (939)
8,9,10

>  <m_Rgroups>  (939)
H,H,OH

$$$$

     RDKit          2D

 11 11  0  0  0  0  0  0  0  0999 V2000
    4.0294    4.1942    0.0000 C   0  0  0  0  0  0  0  0  0  0  0  0
    4.4724    2.7370    0.0000 C   0  0  0  0  0  0  0  0  0  0  0  0
    5.9952    2.7080    0.0000 C   0  0  0  0  0  0  0  0  0  0  0  0
    6.4933    4.1473    0.0000 C   0  0  0  0  0  0  0  0  0  0  0  0
    5.2784    5.0657    0.0000 O   0  0  0  0  0  0  0  0  0  0  0  0
    2.5902    4.6923    0.0000 C   0  0  0  0  0  0  0  0  0  0  0  0
    3.5539    1.5221    0.0000 S   0  0  0  0  0  0  0  0  0  0  0  0
    1.4392    3.6949    0.0000 O   0  0  0  0  0  0  0  0  0  0  0  0
    0.0000    4.1930    0.0000 R#  0  0  0  0  0  0  0  0  0  0  0  0
    3.6047    0.0000    0.0000 R#  0  0  0  0  0  0  0  0  0  0  0  0
    7.9504    4.5903    0.0000 R#  0  0  0  0  0  0  0  0  0  0  0  0
  1  2  1  0
  2  3  1  0
  3  4  1  0
  4  5  1  0
  5  1  1  0
  1  6  1  1
  2  7  1  6
  6  8  1  0
  8  9  1  0
  7 10  1  0
  4 11  1  1
A    9
R1
A   10
R2
A   11
R3
M  END
>  <symbol>  (940)
s3d

>  <m_abbr>  (940)
s3d

>  <m_type>  (940)
rna

>  <m_subtype>  (940)
natural

>  <m_RgroupIdx>  (940)
8,9,10

>  <m_Rgroups>  (940)
H,H,OH

$$$$

     RDKit          2D

 11 11  0  0  0  0  0  0  0  0999 V2000
    4.0294    4.1942    0.0000 C   0  0  0  0  0  0  0  0  0  0  0  0
    4.4724    2.7370    0.0000 C   0  0  0  0  0  0  0  0  0  0  0  0
    5.9952    2.7080    0.0000 C   0  0  0  0  0  0  0  0  0  0  0  0
    6.4933    4.1473    0.0000 C   0  0  0  0  0  0  0  0  0  0  0  0
    5.2784    5.0657    0.0000 O   0  0  0  0  0  0  0  0  0  0  0  0
    2.5902    4.6923    0.0000 C   0  0  0  0  0  0  0  0  0  0  0  0
    3.5539    1.5221    0.0000 O   0  0  0  0  0  0  0  0  0  0  0  0
    1.4392    3.6949    0.0000 S   0  0  0  0  0  0  0  0  0  0  0  0
    0.0000    4.1930    0.0000 R#  0  0  0  0  0  0  0  0  0  0  0  0
    3.6047    0.0000    0.0000 R#  0  0  0  0  0  0  0  0  0  0  0  0
    7.9504    4.5903    0.0000 R#  0  0  0  0  0  0  0  0  0  0  0  0
  1  2  1  0
  2  3  1  0
  3  4  1  0
  4  5  1  0
  5  1  1  0
  1  6  1  1
  2  7  1  6
  6  8  1  0
  8  9  1  0
  7 10  1  0
  4 11  1  1
A    9
R1
A   10
R2
A   11
R3
M  END
>  <symbol>  (941)
s5d

>  <m_abbr>  (941)
s5d

>  <m_type>  (941)
rna

>  <m_subtype>  (941)
natural

>  <m_RgroupIdx>  (941)
8,9,10

>  <m_Rgroups>  (941)
H,H,OH

$$$$

     RDKit          2D

 12 12  0  0  0  0  0  0  0  0999 V2000
    4.0295    4.1942    0.0000 C   0  0  0  0  0  0  0  0  0  0  0  0
    4.4724    2.7370    0.0000 C   0  0  0  0  0  0  0  0  0  0  0  0
    5.9952    2.7080    0.0000 C   0  0  0  0  0  0  0  0  0  0  0  0
    6.4933    4.1473    0.0000 C   0  0  0  0  0  0  0  0  0  0  0  0
    5.2784    5.0657    0.0000 O   0  0  0  0  0  0  0  0  0  0  0  0
    2.5902    4.6923    0.0000 C   0  0  0  0  0  0  0  0  0  0  0  0
    3.5540    1.5221    0.0000 C   0  0  0  0  0  0  0  0  0  0  0  0
    1.4392    3.6949    0.0000 O   0  0  0  0  0  0  0  0  0  0  0  0
    0.0000    4.1930    0.0000 R#  0  0  0  0  0  0  0  0  0  0  0  0
    3.6047    0.0000    0.0000 R#  0  0  0  0  0  0  0  0  0  0  0  0
    7.9504    4.5903    0.0000 R#  0  0  0  0  0  0  0  0  0  0  0  0
    6.8668    1.4591    0.0000 O   0  0  0  0  0  0  0  0  0  0  0  0
  1  2  1  0
  2  3  1  0
  3  4  1  0
  4  5  1  0
  5  1  1  0
  1  6  1  1
  2  7  1  6
  6  8  1  0
  8  9  1  0
  7 10  1  0
  4 11  1  1
  3 12  1  6
A    9
R1
A   10
R2
A   11
R3
M  END
>  <symbol>  (942)
me3r

>  <m_abbr>  (942)
me3r

>  <m_type>  (942)
rna

>  <m_subtype>  (942)
natural

>  <m_RgroupIdx>  (942)
8,9,10

>  <m_Rgroups>  (942)
H,OH,OH

$$$$

     RDKit          2D

 12 12  0  0  0  0  0  0  0  0999 V2000
    4.0295    4.1942    0.0000 C   0  0  0  0  0  0  0  0  0  0  0  0
    4.4724    2.7370    0.0000 C   0  0  0  0  0  0  0  0  0  0  0  0
    5.9952    2.7080    0.0000 C   0  0  0  0  0  0  0  0  0  0  0  0
    6.4933    4.1473    0.0000 C   0  0  0  0  0  0  0  0  0  0  0  0
    5.2784    5.0657    0.0000 O   0  0  0  0  0  0  0  0  0  0  0  0
    2.5902    4.6923    0.0000 C   0  0  0  0  0  0  0  0  0  0  0  0
    3.5540    1.5221    0.0000 C   0  0  0  0  0  0  0  0  0  0  0  0
    1.4392    3.6949    0.0000 O   0  0  0  0  0  0  0  0  0  0  0  0
    0.0000    4.1930    0.0000 R#  0  0  0  0  0  0  0  0  0  0  0  0
    3.6047    0.0000    0.0000 R#  0  0  0  0  0  0  0  0  0  0  0  0
    7.9504    4.5903    0.0000 R#  0  0  0  0  0  0  0  0  0  0  0  0
    6.8668    1.4591    0.0000 F   0  0  0  0  0  0  0  0  0  0  0  0
  1  2  1  0
  2  3  1  0
  3  4  1  0
  4  5  1  0
  5  1  1  0
  1  6  1  1
  2  7  1  6
  6  8  1  0
  8  9  1  0
  7 10  1  0
  4 11  1  1
  3 12  1  6
A    9
R1
A   10
R2
A   11
R3
M  END
>  <symbol>  (943)
me3fl2r

>  <m_abbr>  (943)
me3fl2r

>  <m_type>  (943)
rna

>  <m_subtype>  (943)
natural

>  <m_RgroupIdx>  (943)
8,9,10

>  <m_Rgroups>  (943)
H,OH,OH

$$$$

     RDKit          2D

 12 12  0  0  0  0  0  0  0  0999 V2000
    4.0295    4.1942    0.0000 C   0  0  0  0  0  0  0  0  0  0  0  0
    4.4724    2.7370    0.0000 C   0  0  0  0  0  0  0  0  0  0  0  0
    5.9952    2.7080    0.0000 C   0  0  0  0  0  0  0  0  0  0  0  0
    6.4933    4.1473    0.0000 C   0  0  0  0  0  0  0  0  0  0  0  0
    5.2784    5.0657    0.0000 O   0  0  0  0  0  0  0  0  0  0  0  0
    2.5902    4.6923    0.0000 C   0  0  0  0  0  0  0  0  0  0  0  0
    3.5540    1.5221    0.0000 N   0  0  0  0  0  0  0  0  0  0  0  0
    1.4392    3.6949    0.0000 O   0  0  0  0  0  0  0  0  0  0  0  0
    0.0000    4.1930    0.0000 R#  0  0  0  0  0  0  0  0  0  0  0  0
    3.6047    0.0000    0.0000 R#  0  0  0  0  0  0  0  0  0  0  0  0
    7.9504    4.5903    0.0000 R#  0  0  0  0  0  0  0  0  0  0  0  0
    6.8668    1.4591    0.0000 F   0  0  0  0  0  0  0  0  0  0  0  0
  1  2  1  0
  2  3  1  0
  3  4  1  0
  4  5  1  0
  5  1  1  0
  1  6  1  1
  2  7  1  6
  6  8  1  0
  8  9  1  0
  7 10  1  0
  4 11  1  1
  3 12  1  6
A    9
R1
A   10
R2
A   11
R3
M  END
>  <symbol>  (944)
n3fl2r

>  <m_abbr>  (944)
n3fl2r

>  <m_type>  (944)
rna

>  <m_subtype>  (944)
natural

>  <m_RgroupIdx>  (944)
8,9,10

>  <m_Rgroups>  (944)
H,H,OH

$$$$

     RDKit          2D

 13 13  0  0  0  0  0  0  0  0999 V2000
    4.0295    4.1942    0.0000 C   0  0  0  0  0  0  0  0  0  0  0  0
    4.4724    2.7370    0.0000 C   0  0  0  0  0  0  0  0  0  0  0  0
    5.9952    2.7080    0.0000 C   0  0  0  0  0  0  0  0  0  0  0  0
    6.4933    4.1473    0.0000 C   0  0  0  0  0  0  0  0  0  0  0  0
    5.2784    5.0657    0.0000 O   0  0  0  0  0  0  0  0  0  0  0  0
    2.5902    4.6923    0.0000 C   0  0  0  0  0  0  0  0  0  0  0  0
    3.5540    1.5221    0.0000 N   0  0  0  0  0  0  0  0  0  0  0  0
    1.4392    3.6949    0.0000 O   0  0  0  0  0  0  0  0  0  0  0  0
    0.0000    4.1930    0.0000 R#  0  0  0  0  0  0  0  0  0  0  0  0
    3.6047    0.0000    0.0000 R#  0  0  0  0  0  0  0  0  0  0  0  0
    7.9504    4.5903    0.0000 R#  0  0  0  0  0  0  0  0  0  0  0  0
    6.8668    1.4591    0.0000 O   0  0  0  0  0  0  0  0  0  0  0  0
    8.3379    1.0649    0.0000 C   0  0  0  0  0  0  0  0  0  0  0  0
  1  2  1  0
  2  3  1  0
  3  4  1  0
  4  5  1  0
  5  1  1  0
  1  6  1  1
  2  7  1  6
  6  8  1  0
  8  9  1  0
  7 10  1  0
  4 11  1  1
  3 12  1  6
 12 13  1  0
A    9
R1
A   10
R2
A   11
R3
M  END
>  <symbol>  (945)
n3m

>  <m_abbr>  (945)
n3m

>  <m_type>  (945)
rna

>  <m_subtype>  (945)
natural

>  <m_RgroupIdx>  (945)
8,9,10

>  <m_Rgroups>  (945)
H,H,OH

$$$$

     RDKit          2D

 13 13  0  0  0  0  0  0  0  0999 V2000
    4.0295    4.1942    0.0000 C   0  0  0  0  0  0  0  0  0  0  0  0
    4.4724    2.7370    0.0000 C   0  0  0  0  0  0  0  0  0  0  0  0
    5.9952    2.7080    0.0000 C   0  0  0  0  0  0  0  0  0  0  0  0
    6.4933    4.1473    0.0000 C   0  0  0  0  0  0  0  0  0  0  0  0
    5.2784    5.0657    0.0000 O   0  0  0  0  0  0  0  0  0  0  0  0
    2.5902    4.6923    0.0000 C   0  0  0  0  0  0  0  0  0  0  0  0
    3.5540    1.5221    0.0000 O   0  0  0  0  0  0  0  0  0  0  0  0
    1.4392    3.6949    0.0000 N   0  0  0  0  0  0  0  0  0  0  0  0
    0.0000    4.1930    0.0000 R#  0  0  0  0  0  0  0  0  0  0  0  0
    3.6047    0.0000    0.0000 R#  0  0  0  0  0  0  0  0  0  0  0  0
    7.9504    4.5903    0.0000 R#  0  0  0  0  0  0  0  0  0  0  0  0
    6.8668    1.4591    0.0000 O   0  0  0  0  0  0  0  0  0  0  0  0
    8.3379    1.0649    0.0000 C   0  0  0  0  0  0  0  0  0  0  0  0
  1  2  1  0
  2  3  1  0
  3  4  1  0
  4  5  1  0
  5  1  1  0
  1  6  1  1
  2  7  1  6
  6  8  1  0
  8  9  1  0
  7 10  1  0
  4 11  1  1
  3 12  1  6
 12 13  1  0
A    9
R1
A   10
R2
A   11
R3
M  END
>  <symbol>  (946)
n5m

>  <m_abbr>  (946)
n5m

>  <m_type>  (946)
rna

>  <m_subtype>  (946)
natural

>  <m_RgroupIdx>  (946)
8,9,10

>  <m_Rgroups>  (946)
H,H,OH

$$$$

     RDKit          2D

 12 12  0  0  0  0  0  0  0  0999 V2000
    4.0295    4.1942    0.0000 C   0  0  0  0  0  0  0  0  0  0  0  0
    4.4725    2.7370    0.0000 C   0  0  0  0  0  0  0  0  0  0  0  0
    5.9952    2.7080    0.0000 C   0  0  0  0  0  0  0  0  0  0  0  0
    6.4933    4.1473    0.0000 C   0  0  0  0  0  0  0  0  0  0  0  0
    5.2785    5.0657    0.0000 O   0  0  0  0  0  0  0  0  0  0  0  0
    2.5903    4.6923    0.0000 C   0  0  0  0  0  0  0  0  0  0  0  0
    3.5540    1.5221    0.0000 O   0  0  0  0  0  0  0  0  0  0  0  0
    1.4393    3.6949    0.0000 N   0  0  0  0  0  0  0  0  0  0  0  0
    0.0000    4.1930    0.0000 R#  0  0  0  0  0  0  0  0  0  0  0  0
    3.6048    0.0000    0.0000 R#  0  0  0  0  0  0  0  0  0  0  0  0
    7.9505    4.5903    0.0000 R#  0  0  0  0  0  0  0  0  0  0  0  0
    6.8668    1.4591    0.0000 O   0  0  0  0  0  0  0  0  0  0  0  0
  1  2  1  0
  2  3  1  0
  3  4  1  0
  4  5  1  0
  5  1  1  0
  1  6  1  1
  2  7  1  6
  6  8  1  0
  8  9  1  0
  7 10  1  0
  4 11  1  1
  3 12  1  6
A    9
R1
A   10
R2
A   11
R3
M  END
>  <symbol>  (947)
n5r

>  <m_abbr>  (947)
n5r

>  <m_type>  (947)
rna

>  <m_subtype>  (947)
natural

>  <m_RgroupIdx>  (947)
8,9,10

>  <m_Rgroups>  (947)
H,H,OH

$$$$

     RDKit          2D

 12 12  0  0  0  0  0  0  0  0999 V2000
    4.0295    4.1942    0.0000 C   0  0  0  0  0  0  0  0  0  0  0  0
    4.4724    2.7370    0.0000 C   0  0  0  0  0  0  0  0  0  0  0  0
    5.9952    2.7080    0.0000 C   0  0  0  0  0  0  0  0  0  0  0  0
    6.4933    4.1473    0.0000 C   0  0  0  0  0  0  0  0  0  0  0  0
    5.2784    5.0657    0.0000 O   0  0  0  0  0  0  0  0  0  0  0  0
    2.5902    4.6923    0.0000 C   0  0  0  0  0  0  0  0  0  0  0  0
    3.5540    1.5221    0.0000 O   0  0  0  0  0  0  0  0  0  0  0  0
    1.4392    3.6949    0.0000 N   0  0  0  0  0  0  0  0  0  0  0  0
    0.0000    4.1930    0.0000 R#  0  0  0  0  0  0  0  0  0  0  0  0
    3.6047    0.0000    0.0000 R#  0  0  0  0  0  0  0  0  0  0  0  0
    7.9504    4.5903    0.0000 R#  0  0  0  0  0  0  0  0  0  0  0  0
    6.8668    1.4591    0.0000 F   0  0  0  0  0  0  0  0  0  0  0  0
  1  2  1  0
  2  3  1  0
  3  4  1  0
  4  5  1  0
  5  1  1  0
  1  6  1  1
  2  7  1  6
  6  8  1  0
  8  9  1  0
  7 10  1  0
  4 11  1  1
  3 12  1  6
A    9
R1
A   10
R2
A   11
R3
M  END
>  <symbol>  (948)
n5fl2r

>  <m_abbr>  (948)
n5fl2r

>  <m_type>  (948)
rna

>  <m_subtype>  (948)
natural

>  <m_RgroupIdx>  (948)
8,9,10

>  <m_Rgroups>  (948)
H,H,OH

$$$$

     RDKit          2D

 22 22  0  0  0  0  0  0  0  0999 V2000
    3.9168    9.3673    0.0000 C   0  0  0  0  0  0  0  0  0  0  0  0
    4.2872    7.8900    0.0000 C   0  0  0  0  0  0  0  0  0  0  0  0
    5.8256    7.8766    0.0000 C   0  0  0  0  0  0  0  0  0  0  0  0
    6.3716    9.3125    0.0000 C   0  0  0  0  0  0  0  0  0  0  0  0
    5.2104   10.3045    0.0000 O   0  0  0  0  0  0  0  0  0  0  0  0
    3.3407    6.6968    0.0000 O   0  0  0  0  0  0  0  0  0  0  0  0
    2.4856    9.8881    0.0000 C   0  0  0  0  0  0  0  0  0  0  0  0
    7.8526    9.7062    0.0000 R#  0  0  0  0  0  0  0  0  0  0  0  0
    1.3190    8.9092    0.0000 O   0  0  0  0  0  0  0  0  0  0  0  0
    0.0000    9.6707    0.0000 R#  0  0  0  0  0  0  0  0  0  0  0  0
    3.3407    5.1738    0.0000 R#  0  0  0  0  0  0  0  0  0  0  0  0
    6.6397    6.5902    0.0000 O   0  0  0  0  0  0  0  0  0  0  0  0
    8.9242    5.2712    0.0000 C   0  0  0  0  0  0  0  0  0  0  0  0
    8.1627    6.5902    0.0000 C   0  0  0  0  0  0  0  0  0  0  0  0
   10.4419    5.2712    0.0000 O   0  0  0  0  0  0  0  0  0  0  0  0
   11.2008    3.9568    0.0000 C   0  0  0  0  0  0  0  0  0  0  0  0
   12.7238    3.9568    0.0000 C   0  0  0  0  0  0  0  0  0  0  0  0
   13.4853    2.6379    0.0000 O   0  0  0  0  0  0  0  0  0  0  0  0
   15.0083    2.6379    0.0000 C   0  0  0  0  0  0  0  0  0  0  0  0
   15.7698    1.3189    0.0000 C   0  0  0  0  0  0  0  0  0  0  0  0
   17.2928    1.3189    0.0000 O   0  0  0  0  0  0  0  0  0  0  0  0
   18.0543    0.0000    0.0000 C   0  0  0  0  0  0  0  0  0  0  0  0
  1  2  1  0
  2  3  1  0
  3  4  1  0
  4  5  1  0
  5  1  1  0
  2  6  1  6
  3 12  1  6
  1  7  1  1
  4  8  1  1
  7  9  1  0
  9 10  1  0
  6 11  1  0
 13 14  1  0
 12 14  1  0
 15 16  1  0
 13 15  1  0
 16 17  1  0
 17 18  1  0
 18 19  1  0
 19 20  1  0
 20 21  1  0
 21 22  1  0
A    8
R3
A   10
R1
A   11
R2
M  END
>  <symbol>  (949)
trimoe

>  <m_abbr>  (949)
trimoe

>  <m_type>  (949)
rna

>  <m_subtype>  (949)
natural

>  <m_RgroupIdx>  (949)
9,10,7

>  <m_Rgroups>  (949)
H,H,OH

$$$$

     RDKit          2D

  5  4  0  0  0  0  0  0  0  0999 V2000
    1.5177    1.5176    0.0000 P   0  0  0  0  0  0  0  0  0  0  0  0
    0.0000    1.5294    0.0000 R#  0  0  0  0  0  0  0  0  0  0  0  0
    1.5294    3.0353    0.0000 O   0  0  0  0  0  0  0  0  0  0  0  0
    3.0353    1.5059    0.0000 R#  0  0  0  0  0  0  0  0  0  0  0  0
    1.5059    0.0000    0.0000 B   0  0  0  0  0  0  0  0  0  0  0  0
  1  2  1  0
  1  3  2  0
  1  4  1  0
  1  5  1  0
A    2
R1
A    4
R2
M  END
>  <symbol>  (950)
bp

>  <m_abbr>  (950)
bp

>  <m_type>  (950)
rna

>  <m_subtype>  (950)
natural

>  <m_RgroupIdx>  (950)
1,3

>  <m_Rgroups>  (950)
OH,OH

$$$$

     RDKit          2D

  5  4  0  0  0  0  0  0  0  0999 V2000
    1.4193    1.4194    0.0000 P   0  0  0  0  0  0  0  0  0  0  0  0
    0.0000    1.4524    0.0000 R#  0  0  0  0  0  0  0  0  0  0  0  0
    1.4523    2.8387    0.0000 O   0  0  0  0  0  0  0  0  0  0  0  0
    2.8387    1.3864    0.0000 R#  0  0  0  0  0  0  0  0  0  0  0  0
    1.3864    0.0000    0.0000 S   0  0  0  0  0  0  0  0  0  0  0  0
  1  2  1  0
  1  3  2  0
  1  4  1  0
  1  5  1  0
A    2
R1
A    4
R2
M  END
>  <symbol>  (951)
sp

>  <m_abbr>  (951)
sp

>  <m_type>  (951)
rna

>  <m_subtype>  (951)
natural

>  <m_RgroupIdx>  (951)
1,3

>  <m_Rgroups>  (951)
OH,OH

$$$$

     RDKit          2D

  5  4  0  0  0  0  0  0  0  0999 V2000
    0.0000    1.5263    0.0000 R#  0  0  0  0  0  0  0  0  0  0  0  0
    1.5229    1.5230    0.0000 P   0  0  0  0  0  0  0  0  0  0  0  0
    1.5196    0.0000    0.0000 C   0  0  0  0  0  0  0  0  0  0  0  0
    1.5263    3.0460    0.0000 O   0  0  0  0  0  0  0  0  0  0  0  0
    3.0460    1.5196    0.0000 R#  0  0  0  0  0  0  0  0  0  0  0  0
  2  3  1  0
  2  4  2  0
  2  1  1  0
  2  5  1  0
A    1
R1
A    5
R2
M  END
>  <symbol>  (952)
mp

>  <m_abbr>  (952)
mp

>  <m_type>  (952)
rna

>  <m_subtype>  (952)
natural

>  <m_RgroupIdx>  (952)
0,4

>  <m_Rgroups>  (952)
OH,OH

$$$$

     RDKit          2D

  5  4  0  0  0  0  0  0  0  0999 V2000
    1.5742    1.5231    0.0000 P   0  0  0  0  0  0  0  0  0  0  0  0
    3.0461    1.5231    0.0000 R#  0  0  0  0  0  0  0  0  0  0  0  0
    1.5742    0.0000    0.0000 C   0  0  0  0  0  0  0  0  0  0  0  0
    1.5840    2.9950    0.0000 O   0  0  0  0  0  0  0  0  0  0  0  0
    0.0000    1.5231    0.0000 R#  0  0  0  0  0  0  0  0  0  0  0  0
  1  5  1  0
  1  4  2  0
  1  2  1  0
  1  3  1  0
A    2
R2
A    5
R1
M  END
>  <symbol>  (953)
Rmp

>  <m_abbr>  (953)
Rmp

>  <m_type>  (953)
rna

>  <m_subtype>  (953)
natural

>  <m_RgroupIdx>  (953)
4,1

>  <m_Rgroups>  (953)
OH,OH

$$$$

     RDKit          2D

  8  7  0  0  0  0  0  0  0  0999 V2000
    3.8075    3.0460    0.0000 R#  0  0  0  0  0  0  0  0  0  0  0  0
    3.8075    1.5230    0.0000 P   0  0  0  0  0  0  0  0  0  0  0  0
    2.2845    1.5230    0.0000 C   0  0  0  0  0  0  0  0  0  0  0  0
    5.3305    1.5230    0.0000 O   0  0  0  0  0  0  0  0  0  0  0  0
    3.8075    0.0000    0.0000 R#  0  0  0  0  0  0  0  0  0  0  0  0
    1.5230    2.8419    0.0000 C   0  0  0  0  0  0  0  0  0  0  0  0
    0.0000    2.8419    0.0000 O   0  0  0  0  0  0  0  0  0  0  0  0
    2.2845    4.1609    0.0000 O   0  0  0  0  0  0  0  0  0  0  0  0
  2  3  1  0
  2  4  2  0
  2  1  1  0
  2  5  1  0
  6  3  1  0
  6  8  2  0
  6  7  1  0
A    1
R1
A    5
R2
M  END
>  <symbol>  (954)
cmp

>  <m_abbr>  (954)
cmp

>  <m_type>  (954)
rna

>  <m_subtype>  (954)
natural

>  <m_RgroupIdx>  (954)
0,4

>  <m_Rgroups>  (954)
OH,OH

$$$$

     RDKit          2D

  5  4  0  0  0  0  0  0  0  0999 V2000
    0.0000    1.3190    0.0000 R#  0  0  0  0  0  0  0  0  0  0  0  0
    1.5230    1.3190    0.0000 C   0  0  0  0  0  0  0  0  0  0  0  0
    2.2845    0.0000    0.0000 R#  0  0  0  0  0  0  0  0  0  0  0  0
    1.9172    2.7901    0.0000 F   0  0  0  0  0  0  0  0  0  0  0  0
    3.0330    1.5178    0.0000 F   0  0  0  0  0  0  0  0  0  0  0  0
  1  2  1  0
  2  3  1  0
  2  4  1  0
  2  5  1  0
A    1
R1
A    3
R2
M  END
>  <symbol>  (955)
fl2me

>  <m_abbr>  (955)
fl2me

>  <m_type>  (955)
rna

>  <m_subtype>  (955)
natural

>  <m_RgroupIdx>  (955)
0,2

>  <m_Rgroups>  (955)
OH,OH

$$$$

     RDKit          2D

  3  2  0  0  0  0  0  0  0  0999 V2000
    0.0000    1.3190    0.0000 R#  0  0  0  0  0  0  0  0  0  0  0  0
    1.5230    1.3190    0.0000 O   0  0  0  0  0  0  0  0  0  0  0  0
    2.2845    0.0000    0.0000 R#  0  0  0  0  0  0  0  0  0  0  0  0
  1  2  1  0
  2  3  1  0
A    1
R1
A    3
R2
M  END
>  <symbol>  (956)
oxy

>  <m_abbr>  (956)
oxy

>  <m_type>  (956)
rna

>  <m_subtype>  (956)
natural

>  <m_RgroupIdx>  (956)
0,2

>  <m_Rgroups>  (956)
OH,OH

$$$$

     RDKit          2D

  4  3  0  0  0  0  0  0  0  0999 V2000
    1.3143    2.2832    0.0000 R#  0  0  0  0  0  0  0  0  0  0  0  0
    1.3143    0.7610    0.0000 N   0  0  0  0  0  0  0  0  0  0  0  0
    2.6335    0.0000    0.0000 R#  0  0  0  0  0  0  0  0  0  0  0  0
    0.0000    0.0020    0.0000 C   0  0  0  0  0  0  0  0  0  0  0  0
  1  2  1  0
  2  3  1  0
  2  4  1  0
A    1
R1
A    3
R2
M  END
>  <symbol>  (957)
mn

>  <m_abbr>  (957)
mn

>  <m_type>  (957)
rna

>  <m_subtype>  (957)
natural

>  <m_RgroupIdx>  (957)
0,2

>  <m_Rgroups>  (957)
H,H

$$$$

     RDKit          2D

  5  4  0  0  0  0  0  0  0  0999 V2000
    1.3142    3.8042    0.0000 R#  0  0  0  0  0  0  0  0  0  0  0  0
    1.3142    2.2820    0.0000 N   0  0  0  0  0  0  0  0  0  0  0  0
    2.6334    1.5209    0.0000 R#  0  0  0  0  0  0  0  0  0  0  0  0
    0.0000    1.5230    0.0000 C   0  0  0  0  0  0  0  0  0  0  0  0
    0.0002    0.0000    0.0000 C   0  0  0  0  0  0  0  0  0  0  0  0
  1  2  1  0
  2  3  1  0
  2  4  1  0
  4  5  1  0
A    1
R1
A    3
R2
M  END
>  <symbol>  (958)
en

>  <m_abbr>  (958)
en

>  <m_type>  (958)
rna

>  <m_subtype>  (958)
natural

>  <m_RgroupIdx>  (958)
0,2

>  <m_Rgroups>  (958)
H,H

$$$$

     RDKit          2D

  6  5  0  0  0  0  0  0  0  0999 V2000
    2.6330    4.5657    0.0000 R#  0  0  0  0  0  0  0  0  0  0  0  0
    2.6330    3.0435    0.0000 N   0  0  0  0  0  0  0  0  0  0  0  0
    3.9522    2.2824    0.0000 R#  0  0  0  0  0  0  0  0  0  0  0  0
    1.3188    2.2845    0.0000 C   0  0  0  0  0  0  0  0  0  0  0  0
    1.3190    0.7615    0.0000 C   0  0  0  0  0  0  0  0  0  0  0  0
    0.0000    0.0000    0.0000 C   0  0  0  0  0  0  0  0  0  0  0  0
  1  2  1  0
  2  3  1  0
  2  4  1  0
  4  5  1  0
  5  6  1  0
A    1
R1
A    3
R2
M  END
>  <symbol>  (959)
prn

>  <m_abbr>  (959)
prn

>  <m_type>  (959)
rna

>  <m_subtype>  (959)
natural

>  <m_RgroupIdx>  (959)
0,2

>  <m_Rgroups>  (959)
H,H

$$$$

     RDKit          2D

  7  6  0  0  0  0  0  0  0  0999 V2000
    2.6330    6.0887    0.0000 R#  0  0  0  0  0  0  0  0  0  0  0  0
    2.6330    4.5665    0.0000 N   0  0  0  0  0  0  0  0  0  0  0  0
    3.9522    3.8054    0.0000 R#  0  0  0  0  0  0  0  0  0  0  0  0
    1.3188    3.8075    0.0000 C   0  0  0  0  0  0  0  0  0  0  0  0
    1.3190    2.2845    0.0000 C   0  0  0  0  0  0  0  0  0  0  0  0
    0.0000    1.5230    0.0000 O   0  0  0  0  0  0  0  0  0  0  0  0
    0.0000    0.0000    0.0000 C   0  0  0  0  0  0  0  0  0  0  0  0
  1  2  1  0
  2  3  1  0
  2  4  1  0
  4  5  1  0
  5  6  1  0
  6  7  1  0
A    1
R1
A    3
R2
M  END
>  <symbol>  (960)
moen

>  <m_abbr>  (960)
moen

>  <m_type>  (960)
rna

>  <m_subtype>  (960)
natural

>  <m_RgroupIdx>  (960)
0,2

>  <m_Rgroups>  (960)
H,H

$$$$

     RDKit          2D

  8  7  0  0  0  0  0  0  0  0999 V2000
    3.9519    6.0887    0.0000 R#  0  0  0  0  0  0  0  0  0  0  0  0
    3.9519    4.5665    0.0000 N   0  0  0  0  0  0  0  0  0  0  0  0
    5.2711    3.8054    0.0000 R#  0  0  0  0  0  0  0  0  0  0  0  0
    2.6377    3.8075    0.0000 C   0  0  0  0  0  0  0  0  0  0  0  0
    2.6379    2.2845    0.0000 C   0  0  0  0  0  0  0  0  0  0  0  0
    1.3189    1.5230    0.0000 N   0  0  0  0  0  0  0  0  0  0  0  0
    1.3189    0.0000    0.0000 C   0  0  0  0  0  0  0  0  0  0  0  0
    0.0000    2.2845    0.0000 C   0  0  0  0  0  0  0  0  0  0  0  0
  1  2  1  0
  2  3  1  0
  2  4  1  0
  4  5  1  0
  5  6  1  0
  6  7  1  0
  6  8  1  0
A    1
R1
A    3
R2
M  END
>  <symbol>  (961)
m2nen

>  <m_abbr>  (961)
m2nen

>  <m_type>  (961)
rna

>  <m_subtype>  (961)
natural

>  <m_RgroupIdx>  (961)
0,2

>  <m_Rgroups>  (961)
H,H

$$$$

     RDKit          2D

  6  5  0  0  0  0  0  0  0  0999 V2000
    2.6330    4.5657    0.0000 R#  0  0  0  0  0  0  0  0  0  0  0  0
    2.6330    3.0435    0.0000 N   0  0  0  0  0  0  0  0  0  0  0  0
    3.9522    2.2824    0.0000 R#  0  0  0  0  0  0  0  0  0  0  0  0
    1.3188    2.2845    0.0000 C   0  0  0  0  0  0  0  0  0  0  0  0
    1.3190    0.7615    0.0000 C   0  0  0  0  0  0  0  0  0  0  0  0
    0.0000    0.0000    0.0000 N   0  0  0  0  0  0  0  0  0  0  0  0
  1  2  1  0
  2  3  1  0
  2  4  1  0
  4  5  1  0
  5  6  1  0
A    1
R1
A    3
R2
M  END
>  <symbol>  (962)
nen

>  <m_abbr>  (962)
nen

>  <m_type>  (962)
rna

>  <m_subtype>  (962)
natural

>  <m_RgroupIdx>  (962)
0,2

>  <m_Rgroups>  (962)
H,H

$$$$

     RDKit          2D

  7  6  0  0  0  0  0  0  0  0999 V2000
    2.6330    4.5657    0.0000 R#  0  0  0  0  0  0  0  0  0  0  0  0
    2.6330    3.0435    0.0000 N   0  0  0  0  0  0  0  0  0  0  0  0
    3.9522    2.2824    0.0000 R#  0  0  0  0  0  0  0  0  0  0  0  0
    1.3188    2.2845    0.0000 C   0  0  0  0  0  0  0  0  0  0  0  0
    1.3190    0.7615    0.0000 C   0  0  0  0  0  0  0  0  0  0  0  0
    0.0000    0.0000    0.0000 C   0  0  0  0  0  0  0  0  0  0  0  0
    2.6380    0.0001    0.0000 C   0  0  0  0  0  0  0  0  0  0  0  0
  1  2  1  0
  2  3  1  0
  2  4  1  0
  4  5  1  0
  5  6  1  0
  5  7  1  0
A    1
R1
A    3
R2
M  END
>  <symbol>  (963)
ibun

>  <m_abbr>  (963)
ibun

>  <m_type>  (963)
rna

>  <m_subtype>  (963)
natural

>  <m_RgroupIdx>  (963)
0,2

>  <m_Rgroups>  (963)
H,H

$$$$

     RDKit          2D

 10 10  0  0  0  0  0  0  0  0999 V2000
    2.6330    6.8502    0.0000 R#  0  0  0  0  0  0  0  0  0  0  0  0
    2.6330    5.3280    0.0000 N   0  0  0  0  0  0  0  0  0  0  0  0
    3.9522    4.5669    0.0000 R#  0  0  0  0  0  0  0  0  0  0  0  0
    1.3188    4.5690    0.0000 C   0  0  0  0  0  0  0  0  0  0  0  0
    1.3190    3.0460    0.0000 C   0  0  0  0  0  0  0  0  0  0  0  0
    0.0000    2.2845    0.0000 C   0  0  0  0  0  0  0  0  0  0  0  0
    2.6380    2.2846    0.0000 C   0  0  0  0  0  0  0  0  0  0  0  0
    0.0000    0.7615    0.0000 C   0  0  0  0  0  0  0  0  0  0  0  0
    1.3190    0.0000    0.0000 C   0  0  0  0  0  0  0  0  0  0  0  0
    2.6380    0.7615    0.0000 C   0  0  0  0  0  0  0  0  0  0  0  0
  1  2  1  0
  2  3  1  0
  2  4  1  0
  4  5  1  0
  5  6  2  0
  5  7  1  0
  6  8  1  0
  8  9  2  0
  9 10  1  0
 10  7  2  0
A    1
R1
A    3
R2
M  END
>  <symbol>  (964)
bnn

>  <m_abbr>  (964)
bnn

>  <m_type>  (964)
rna

>  <m_subtype>  (964)
natural

>  <m_RgroupIdx>  (964)
0,2

>  <m_Rgroups>  (964)
H,H

$$$$

     RDKit          2D

  6  5  0  0  0  0  0  0  0  0999 V2000
    1.5230    3.0460    0.0000 C   0  0  0  0  0  0  0  0  0  0  0  0
    1.5230    1.5230    0.0000 P   0  0  0  0  0  0  0  0  0  0  0  0
    0.0000    1.5230    0.0000 O   0  0  0  0  0  0  0  0  0  0  0  0
    3.0460    1.5230    0.0000 O   0  0  0  0  0  0  0  0  0  0  0  0
    2.8420    3.8075    0.0000 R#  0  0  0  0  0  0  0  0  0  0  0  0
    1.5230    0.0000    0.0000 R#  0  0  0  0  0  0  0  0  0  0  0  0
  1  2  1  0
  2  3  2  0
  2  4  1  0
  1  5  1  0
  2  6  1  0
A    5
R1
A    6
R2
M  END
>  <symbol>  (965)
mepo2

>  <m_abbr>  (965)
mepo2

>  <m_type>  (965)
rna

>  <m_subtype>  (965)
natural

>  <m_RgroupIdx>  (965)
4,5

>  <m_Rgroups>  (965)
OH,OH

$$$$
Amino acid/PNA 2nd half
     RDKit          2D

  3  2  0  0  0  0  0  0  0  0999 V2000
    0.0000    0.0000    0.0000 R#  0  0  0  0  0  0  0  0  0  0  0  0
    1.3000    0.7500    0.0000 N   0  0  0  0  0  0  0  0  0  0  0  0
    2.7500    0.3625    0.0000 R#  0  0  0  0  0  0  0  0  0  0  0  0
  1  2  1  0
  2  3  1  0
A    1
R1
A    3
R2
M  END
>  <symbol>  (966)
hn

>  <m_abbr>  (966)
hn

>  <m_type>  (966)
rna

>  <m_subtype>  (966)
natural

>  <m_RgroupIdx>  (966)
0,2

>  <m_Rgroups>  (966)
H,H

$$$$

     RDKit          2D

  7  6  0  0  0  0  0  0  0  0999 V2000
    1.5097    3.8012    0.0000 O   0  0  0  0  0  0  0  0  0  0  0  0
    1.5177    2.2835    0.0000 P   0  0  0  0  0  0  0  0  0  0  0  0
    1.5257    0.7658    0.0000 N   0  0  0  0  0  0  0  0  0  0  0  0
    0.2153    0.0000    0.0000 C   0  0  0  0  0  0  0  0  0  0  0  0
    2.8440    0.0139    0.0000 C   0  0  0  0  0  0  0  0  0  0  0  0
    0.0000    2.2755    0.0000 R#  0  0  0  0  0  0  0  0  0  0  0  0
    3.0354    2.2915    0.0000 R#  0  0  0  0  0  0  0  0  0  0  0  0
  1  2  2  0
  2  3  1  0
  3  4  1  0
  3  5  1  0
  2  6  1  0
  2  7  1  0
A    6
R1
A    7
R2
M  END
>  <symbol>  (967)
m2np

>  <m_abbr>  (967)
m2np

>  <m_type>  (967)
rna

>  <m_subtype>  (967)
natural

>  <m_RgroupIdx>  (967)
5,6

>  <m_Rgroups>  (967)
NH2,OH

$$$$

     RDKit          2D

 10  9  0  0  0  0  0  0  0  0999 V2000
    1.5177    3.0354    0.0000 R#  0  0  0  0  0  0  0  0  0  0  0  0
    1.5177    1.5177    0.0000 P   0  0  0  0  0  0  0  0  0  0  0  0
    0.0000    1.5177    0.0000 S   0  0  0  0  0  0  0  0  0  0  0  0
    3.0354    1.5177    0.0000 C   0  0  0  0  0  0  0  0  0  0  0  0
    1.5177    0.0000    0.0000 R#  0  0  0  0  0  0  0  0  0  0  0  0
    4.1305    2.5762    0.0000 C   0  0  0  0  0  0  0  0  0  0  0  0
    3.4046    0.0401    0.0000 O   0  0  0  0  0  0  0  0  0  0  0  0
    3.7613    4.0538    0.0000 Cl  0  0  0  0  0  0  0  0  0  0  0  0
    5.5947    2.1571    0.0000 Cl  0  0  0  0  0  0  0  0  0  0  0  0
    5.2255    3.6347    0.0000 Cl  0  0  0  0  0  0  0  0  0  0  0  0
  1  2  1  0
  2  3  2  0
  2  4  1  0
  2  5  1  0
  4  6  1  0
  4  7  1  0
  6  8  1  0
  6  9  1  0
  6 10  1  0
A    1
R1
A    5
R2
M  END
>  <symbol>  (968)
cl3ohesp

>  <m_abbr>  (968)
cl3ohesp

>  <m_type>  (968)
rna

>  <m_subtype>  (968)
natural

>  <m_RgroupIdx>  (968)
0,4

>  <m_Rgroups>  (968)
OH,OH

$$$$

     RDKit          2D

  4  3  0  0  0  0  0  0  0  0999 V2000
    0.0000    1.3189    0.0000 R#  0  0  0  0  0  0  0  0  0  0  0  0
    1.5230    1.3189    0.0000 C   0  0  0  0  0  0  0  0  0  0  0  0
    2.2845    0.0000    0.0000 R#  0  0  0  0  0  0  0  0  0  0  0  0
    2.2845    2.6379    0.0000 F   0  0  0  0  0  0  0  0  0  0  0  0
  1  2  1  0
  2  3  1  0
  2  4  1  0
A    1
R1
A    3
R2
M  END
>  <symbol>  (969)
flme

>  <m_abbr>  (969)
flme

>  <m_type>  (969)
rna

>  <m_subtype>  (969)
natural

>  <m_RgroupIdx>  (969)
0,2

>  <m_Rgroups>  (969)
OH,OH

$$$$

     RDKit          2D

  5  4  0  0  0  0  0  0  0  0999 V2000
    0.0000    1.5263    0.0000 R#  0  0  0  0  0  0  0  0  0  0  0  0
    1.5230    1.5230    0.0000 P   0  0  0  0  0  0  0  0  0  0  0  0
    1.5196    0.0000    0.0000 C   0  0  0  0  0  0  0  0  0  0  0  0
    1.5263    3.0460    0.0000 S   0  0  0  0  0  0  0  0  0  0  0  0
    3.0460    1.5196    0.0000 R#  0  0  0  0  0  0  0  0  0  0  0  0
  2  3  1  0
  2  4  2  0
  2  1  1  0
  2  5  1  0
A    1
R1
A    5
R2
M  END
>  <symbol>  (970)
msp

>  <m_abbr>  (970)
msp

>  <m_type>  (970)
rna

>  <m_subtype>  (970)
natural

>  <m_RgroupIdx>  (970)
0,4

>  <m_Rgroups>  (970)
OH,OH

$$$$

     RDKit          2D

  5  4  0  0  0  0  0  0  0  0999 V2000
    1.5230    1.5230    0.0000 P   0  0  0  0  0  0  0  0  0  0  0  0
    0.0000    1.5230    0.0000 R#  0  0  0  0  0  0  0  0  0  0  0  0
    3.0460    1.5230    0.0000 R#  0  0  0  0  0  0  0  0  0  0  0  0
    1.5230    0.0000    0.0000 S   0  0  0  0  0  0  0  0  0  0  0  0
    1.5230    3.0460    0.0000 S   0  0  0  0  0  0  0  0  0  0  0  0
  1  2  1  0
  1  5  2  0
  1  3  1  0
  1  4  1  0
A    2
R1
A    3
R2
M  END
>  <symbol>  (971)
s2p

>  <m_abbr>  (971)
s2p

>  <m_type>  (971)
rna

>  <m_subtype>  (971)
natural

>  <m_RgroupIdx>  (971)
1,2

>  <m_Rgroups>  (971)
OH,OH

$$$$

     RDKit          2D

  5  4  0  0  0  0  0  0  0  0999 V2000
    1.5759    1.5758    0.0000 P   0  0  0  0  0  0  0  0  0  0  0  0
    3.0989    1.5758    0.0000 R#  0  0  0  0  0  0  0  0  0  0  0  0
    1.5759    0.0000    0.0000 S   0  0  0  0  0  0  0  0  0  0  0  0
    1.5860    3.0988    0.0000 O   0  0  0  0  0  0  0  0  0  0  0  0
    0.0000    1.5758    0.0000 R#  0  0  0  0  0  0  0  0  0  0  0  0
  1  5  1  0
  1  4  2  0
  1  2  1  0
  1  3  1  0
A    2
R2
A    5
R1
M  END
>  <symbol>  (972)
Rsp

>  <m_abbr>  (972)
Rsp

>  <m_type>  (972)
rna

>  <m_subtype>  (972)
natural

>  <m_RgroupIdx>  (972)
4,1

>  <m_Rgroups>  (972)
OH,OH

$$$$

     RDKit          2D

  5  4  0  0  0  0  0  0  0  0999 V2000
    1.6288    1.5758    0.0000 P   0  0  0  0  0  0  0  0  0  0  0  0
    3.1518    1.5758    0.0000 R#  0  0  0  0  0  0  0  0  0  0  0  0
    1.6288    0.0000    0.0000 S   0  0  0  0  0  0  0  0  0  0  0  0
    1.6389    3.0988    0.0000 O   0  0  0  0  0  0  0  0  0  0  0  0
    0.0000    1.5758    0.0000 R#  0  0  0  0  0  0  0  0  0  0  0  0
  1  5  1  0
  1  4  2  0
  1  2  1  0
  1  3  1  0
A    2
R2
A    5
R1
M  END
>  <symbol>  (973)
Ssp

>  <m_abbr>  (973)
Ssp

>  <m_type>  (973)
rna

>  <m_subtype>  (973)
natural

>  <m_RgroupIdx>  (973)
4,1

>  <m_Rgroups>  (973)
OH,OH

$$$$

     RDKit          2D

  7  6  0  0  0  0  0  0  0  0999 V2000
    0.0000    3.8108    0.0000 R#  0  0  0  0  0  0  0  0  0  0  0  0
    1.6816    3.8075    0.0000 P   0  0  0  0  0  0  0  0  0  0  0  0
    1.6783    2.2845    0.0000 O   0  0  0  0  0  0  0  0  0  0  0  0
    1.6850    5.3305    0.0000 O   0  0  0  0  0  0  0  0  0  0  0  0
    3.2046    3.8042    0.0000 R#  0  0  0  0  0  0  0  0  0  0  0  0
    0.3593    0.0000    0.0000 C   0  0  0  0  0  0  0  0  0  0  0  0
    0.3593    1.5230    0.0000 C   0  0  0  0  0  0  0  0  0  0  0  0
  2  3  1  0
  2  4  2  0
  2  1  1  0
  2  5  1  0
  6  7  1  0
  7  3  1  0
A    1
R1
A    5
R2
M  END
>  <symbol>  (974)
eop

>  <m_abbr>  (974)
eop

>  <m_type>  (974)
rna

>  <m_subtype>  (974)
natural

>  <m_RgroupIdx>  (974)
0,4

>  <m_Rgroups>  (974)
OH,OH

$$$$

     RDKit          2D

  5  4  0  0  0  0  0  0  0  0999 V2000
    1.3190    3.8075    0.0000 R#  0  0  0  0  0  0  0  0  0  0  0  0
    1.3190    2.2845    0.0000 C   0  0  0  0  0  0  0  0  0  0  0  0
    0.0000    1.5230    0.0000 O   0  0  0  0  0  0  0  0  0  0  0  0
    2.6379    1.5230    0.0000 C   0  0  0  0  0  0  0  0  0  0  0  0
    2.6379    0.0000    0.0000 R#  0  0  0  0  0  0  0  0  0  0  0  0
  1  2  1  0
  2  3  2  0
  2  4  1  0
  4  5  1  0
A    1
R1
A    5
R2
M  END
>  <symbol>  (975)
cm

>  <m_abbr>  (975)
cm

>  <m_type>  (975)
rna

>  <m_subtype>  (975)
natural

>  <m_RgroupIdx>  (975)
0,4

>  <m_Rgroups>  (975)
OH,OH

$$$$

     RDKit          2D

  6  5  0  0  0  0  0  0  0  0999 V2000
    1.3188    2.2839    0.0000 C   0  0  0  0  0  0  0  0  0  0  0  0
    1.3188    0.7617    0.0000 C   0  0  0  0  0  0  0  0  0  0  0  0
    0.0000    0.0000    0.0000 O   0  0  0  0  0  0  0  0  0  0  0  0
    2.6377    3.0454    0.0000 N   0  0  0  0  0  0  0  0  0  0  0  0
    2.6378    0.0003    0.0000 R#  0  0  0  0  0  0  0  0  0  0  0  0
    2.6377    4.5684    0.0000 R#  0  0  0  0  0  0  0  0  0  0  0  0
  1  2  1  0
  2  3  2  0
  1  4  1  0
  2  5  1  0
  4  6  1  0
A    5
R1
A    6
R2
M  END
>  <symbol>  (976)
gly

>  <m_abbr>  (976)
gly

>  <m_type>  (976)
rna

>  <m_subtype>  (976)
natural

>  <m_RgroupIdx>  (976)
4,5

>  <m_Rgroups>  (976)
OH,OH

$$$$

     RDKit          2D

  5  4  0  0  0  0  0  0  0  0999 V2000
    1.5759    1.5759    0.0000 P   0  0  0  0  0  0  0  0  0  0  0  0
    3.0989    1.5759    0.0000 R#  0  0  0  0  0  0  0  0  0  0  0  0
    1.5759    0.0000    0.0000 C   0  0  0  0  0  0  0  0  0  0  0  0
    1.5860    3.0989    0.0000 O   0  0  0  0  0  0  0  0  0  0  0  0
    0.0000    1.5759    0.0000 R#  0  0  0  0  0  0  0  0  0  0  0  0
  1  5  1  0
  1  4  2  0
  1  2  1  0
  1  3  1  0
A    2
R2
A    5
R1
M  END
>  <symbol>  (977)
Smp

>  <m_abbr>  (977)
Smp

>  <m_type>  (977)
rna

>  <m_subtype>  (977)
natural

>  <m_RgroupIdx>  (977)
4,1

>  <m_Rgroups>  (977)
OH,OH

$$$$

     RDKit          2D

  3  2  0  0  0  0  0  0  0  0999 V2000
    0.0000    1.3190    0.0000 R#  0  0  0  0  0  0  0  0  0  0  0  0
    1.5230    1.3190    0.0000 C   0  0  0  0  0  0  0  0  0  0  0  0
    2.2845    0.0000    0.0000 R#  0  0  0  0  0  0  0  0  0  0  0  0
  1  2  1  0
  2  3  1  0
A    1
R1
A    3
R2
M  END
>  <symbol>  (978)
me

>  <m_abbr>  (978)
me

>  <m_type>  (978)
rna

>  <m_subtype>  (978)
natural

>  <m_RgroupIdx>  (978)
0,2

>  <m_Rgroups>  (978)
OH,OH

$$$$

     RDKit          2D

  4  3  0  0  0  0  0  0  0  0999 V2000
    0.0000    1.3190    0.0000 R#  0  0  0  0  0  0  0  0  0  0  0  0
    1.5230    1.3190    0.0000 C   0  0  0  0  0  0  0  0  0  0  0  0
    2.2845    0.0000    0.0000 R#  0  0  0  0  0  0  0  0  0  0  0  0
    2.2845    2.6379    0.0000 O   0  0  0  0  0  0  0  0  0  0  0  0
  1  2  1  0
  2  3  1  0
  2  4  2  0
A    1
R1
A    3
R1
M  END
>  <symbol>  (979)
co

>  <m_abbr>  (979)
co

>  <m_type>  (979)
rna

>  <m_subtype>  (979)
natural

>  <m_RgroupIdx>  (979)
0,2

>  <m_Rgroups>  (979)
OH,OH

$$$$

     RDKit          2D

 16 16  0  0  0  0  0  0  0  0999 V2000
   22.1465  -13.2487    0.0000 C   0  0  0  0  0  0  0  0  0  0  0  0
   20.8845  -14.1656    0.0000 C   0  0  0  0  0  0  0  0  0  0  0  0
   21.3666  -15.6492    0.0000 C   0  0  0  0  0  0  0  0  0  0  0  0
   22.9266  -15.6492    0.0000 C   0  0  0  0  0  0  0  0  0  0  0  0
   23.4085  -14.1656    0.0000 O   0  0  0  0  0  0  0  0  0  0  0  0
   23.8436  -16.9112    0.0000 C   0  0  0  0  0  0  0  0  0  0  0  0
   25.3950  -16.7480    0.0000 O   0  0  0  0  0  0  0  0  0  0  0  0
   20.4496  -16.9113    0.0000 O   0  0  0  0  0  0  0  0  0  0  0  0
   19.4007  -13.6834    0.0000 O   0  0  0  0  0  0  0  0  0  0  0  0
   18.2413  -14.7272    0.0000 C   0  0  0  0  0  0  0  0  0  0  0  0
   16.7577  -14.2451    0.0000 C   0  0  0  0  0  0  0  0  0  0  0  0
   15.5983  -15.2889    0.0000 O   0  0  0  0  0  0  0  0  0  0  0  0
   14.1147  -14.8067    0.0000 C   0  0  0  0  0  0  0  0  0  0  0  0
   22.1465  -11.6887    0.0000 R#  0  0  0  0  0  0  0  0  0  0  0  0
   26.0293  -15.3228    0.0000 R#  0  0  0  0  0  0  0  0  0  0  0  0
   21.0840  -18.3364    0.0000 R#  0  0  0  0  0  0  0  0  0  0  0  0
  1  2  1  0
  2  3  1  0
  3  4  1  0
  4  5  1  0
  5  1  1  0
  4  6  1  6
  6  7  1  0
  3  8  1  1
  2  9  1  1
  9 10  1  0
 10 11  1  0
 11 12  1  0
 12 13  1  0
  1 14  1  0
  7 15  1  0
  8 16  1  0
M  RGP  3  14   1  15   2  16   3
V   14 *
V   15 *
V   16 *
A   14
R3
A   15
R1
A   16
R2
M  END
>  <symbol>  (980)
MOE

>  <m_abbr>  (980)
MOE

>  <m_type>  (980)
rna

>  <m_subtype>  (980)
natural

>  <m_RgroupIdx>  (980)
14,15,13

>  <m_Rgroups>  (980)
H,H,H

$$$$

     RDKit          2D

 10 10  0  0  0  0  0  0  0  0999 V2000
   21.5800   -8.7880    0.0000 N   0  0  0  0  0  0  0  0  0  0  0  0
   20.2290   -8.0080    0.0000 C   0  0  0  0  0  0  0  0  0  0  0  0
   20.2290   -6.4480    0.0000 C   0  0  0  0  0  0  0  0  0  0  0  0
   21.5800   -5.6680    0.0000 C   0  0  0  0  0  0  0  0  0  0  0  0
   22.9310   -6.4480    0.0000 N   0  0  0  0  0  0  0  0  0  0  0  0
   22.9310   -8.0080    0.0000 C   0  0  0  0  0  0  0  0  0  0  0  0
   21.5800  -10.3480    0.0000 R#  0  0  0  0  0  0  0  0  0  0  0  0
   21.5800   -4.1080    0.0000 N   0  0  0  0  0  0  0  0  0  0  0  0
   18.8780   -5.6680    0.0000 C   0  0  0  0  0  0  0  0  0  0  0  0
   24.2820   -8.7880    0.0000 O   0  0  0  0  0  0  0  0  0  0  0  0
  1  2  1  0
  2  3  2  0
  3  4  1  0
  4  5  2  0
  5  6  1  0
  6  1  1  0
  1  7  1  0
  4  8  1  0
  3  9  1  0
  6 10  2  0
M  RGP  1   7   1
V    7 *
A    7
R1
M  END
>  <symbol>  (981)
5meC

>  <m_abbr>  (981)
5meC

>  <m_type>  (981)
rna

>  <m_subtype>  (981)
natural

>  <m_RgroupIdx>  (981)
6

>  <m_Rgroups>  (981)
H

$$$$

     RDKit          2D

 11 11  0  0  0  0  0  0  0  0999 V2000
   21.0713  -12.5322    0.0000 O   0  0  0  0  0  0  0  0  0  0  0  0
   19.7446  -13.3007    0.0000 C   0  0  0  0  0  0  0  0  0  0  0  0
   22.4003  -13.2970    0.0000 C   0  0  0  0  0  0  0  0  0  0  0  0
   20.1435  -14.7810    0.0000 C   0  0  0  0  0  0  0  0  0  0  0  0
   22.0056  -14.7784    0.0000 C   0  0  0  0  0  0  0  0  0  0  0  0
   20.1457  -16.3144    0.0000 O   0  0  0  0  0  0  0  0  0  0  0  0
   19.4686  -11.7128    0.0000 C   0  0  0  0  0  0  0  0  0  0  0  0
   22.3981  -11.3804    0.0000 R#  0  0  0  0  0  0  0  0  0  0  0  0
   18.5923  -11.0556    0.0000 O   0  0  0  0  0  0  0  0  0  0  0  0
   17.0590  -10.7682    0.0000 R#  0  0  0  0  0  0  0  0  0  0  0  0
   21.4491  -17.3440    0.0000 R#  0  0  0  0  0  0  0  0  0  0  0  0
  1  2  1  0
  1  3  1  0
  2  4  1  0
  2  7  1  0
  3  5  1  0
  3  8  1  6
  4  5  1  0
  4  6  1  6
  6 11  1  0
  7  9  1  0
  9 10  1  0
M  RGP  3   8   1  10   2  11   3
V    8 *
V   10 *
V   11 *
A    8
R3
A   10
R1
A   11
R2
M  END
>  <symbol>  (982)
dR

>  <m_abbr>  (982)
dR

>  <m_type>  (982)
rna

>  <m_subtype>  (982)
natural

>  <m_RgroupIdx>  (982)
9,10,7

>  <m_Rgroups>  (982)
H,H,H

$$$$

     RDKit          2D

  9  9  0  0  0  0  0  0  0  0999 V2000
   17.6800  -15.7040    0.0000 N   0  0  0  0  0  0  0  0  0  0  0  0
   16.3290  -14.9240    0.0000 C   0  0  0  0  0  0  0  0  0  0  0  0
   16.3290  -13.3640    0.0000 C   0  0  0  0  0  0  0  0  0  0  0  0
   17.6800  -12.5840    0.0000 C   0  0  0  0  0  0  0  0  0  0  0  0
   19.0310  -13.3640    0.0000 N   0  0  0  0  0  0  0  0  0  0  0  0
   19.0310  -14.9240    0.0000 C   0  0  0  0  0  0  0  0  0  0  0  0
   14.9780  -15.7040    0.0000 O   0  0  0  0  0  0  0  0  0  0  0  0
   20.3820  -15.7040    0.0000 O   0  0  0  0  0  0  0  0  0  0  0  0
   14.9780  -12.5840    0.0000 R#  0  0  0  0  0  0  0  0  0  0  0  0
  1  2  1  0
  2  3  1  0
  3  4  2  0
  4  5  1  0
  5  6  1  0
  6  1  1  0
  2  7  2  0
  6  8  2  0
  3  9  1  0
M  RGP  1   9   1
V    9 *
A    9
R1
M  END
>  <symbol>  (983)
psiU

>  <m_abbr>  (983)
psiU

>  <m_type>  (983)
rna

>  <m_subtype>  (983)
natural

>  <m_RgroupIdx>  (983)
8

>  <m_Rgroups>  (983)
H

$$$$

     RDKit          2D

 12 12  0  0  0  0  0  0  0  0999 V2000
   18.7505  -13.2487    0.0000 C   0  0  0  0  0  0  0  0  0  0  0  0
   17.4885  -14.1656    0.0000 C   0  0  0  0  0  0  0  0  0  0  0  0
   17.9706  -15.6492    0.0000 C   0  0  0  0  0  0  0  0  0  0  0  0
   19.5306  -15.6492    0.0000 O   0  0  0  0  0  0  0  0  0  0  0  0
   20.0125  -14.1656    0.0000 C   0  0  0  0  0  0  0  0  0  0  0  0
   16.0049  -13.6834    0.0000 F   0  0  0  0  0  0  0  0  0  0  0  0
   17.0536  -16.9113    0.0000 R#  0  0  0  0  0  0  0  0  0  0  0  0
   21.4962  -13.6835    0.0000 C   0  0  0  0  0  0  0  0  0  0  0  0
   22.6555  -14.7273    0.0000 O   0  0  0  0  0  0  0  0  0  0  0  0
   18.7505  -11.6887    0.0000 O   0  0  0  0  0  0  0  0  0  0  0  0
   24.1391  -14.2452    0.0000 R#  0  0  0  0  0  0  0  0  0  0  0  0
   17.3995  -10.9087    0.0000 R#  0  0  0  0  0  0  0  0  0  0  0  0
  1  2  1  0
  2  3  1  0
  3  4  1  0
  4  5  1  0
  5  1  1  0
  2  6  1  6
  3  7  1  1
  5  8  1  1
  8  9  1  0
  1 10  1  6
  9 11  1  0
 10 12  1  0
M  RGP  3   7   1  11   2  12   3
V    7 *
V   11 *
V   12 *
A    7
R3
A   11
R1
A   12
R2
M  END
>  <symbol>  (984)
fR

>  <m_abbr>  (984)
fR

>  <m_type>  (984)
rna

>  <m_subtype>  (984)
natural

>  <m_RgroupIdx>  (984)
10,11,6

>  <m_Rgroups>  (984)
H,H,H

$$$$

     RDKit          2D

 12 12  0  0  0  0  0  0  0  0999 V2000
   18.7505  -13.2487    0.0000 C   0  0  0  0  0  0  0  0  0  0  0  0
   17.4885  -14.1656    0.0000 C   0  0  0  0  0  0  0  0  0  0  0  0
   17.9706  -15.6492    0.0000 C   0  0  0  0  0  0  0  0  0  0  0  0
   19.5306  -15.6492    0.0000 O   0  0  0  0  0  0  0  0  0  0  0  0
   20.0125  -14.1656    0.0000 C   0  0  0  0  0  0  0  0  0  0  0  0
   16.0049  -13.6834    0.0000 F   0  0  0  0  0  0  0  0  0  0  0  0
   17.0536  -16.9113    0.0000 R#  0  0  0  0  0  0  0  0  0  0  0  0
   21.4962  -13.6835    0.0000 C   0  0  0  0  0  0  0  0  0  0  0  0
   22.6555  -14.7273    0.0000 O   0  0  0  0  0  0  0  0  0  0  0  0
   18.7505  -11.6887    0.0000 O   0  0  0  0  0  0  0  0  0  0  0  0
   24.1391  -14.2452    0.0000 R#  0  0  0  0  0  0  0  0  0  0  0  0
   17.3995  -10.9087    0.0000 R#  0  0  0  0  0  0  0  0  0  0  0  0
  1  2  1  0
  2  3  1  0
  3  4  1  0
  4  5  1  0
  5  1  1  0
  2  6  1  6
  3  7  1  1
  5  8  1  1
  8  9  1  0
  1 10  1  6
  9 11  1  0
 10 12  1  0
M  RGP  3   7   1  11   2  12   3
V    7 *
V   11 *
V   12 *
A    7
R3
A   11
R1
A   12
R2
M  END
>  <symbol>  (985)
FR

>  <m_abbr>  (985)
FR

>  <m_type>  (985)
rna

>  <m_subtype>  (985)
natural

>  <m_RgroupIdx>  (985)
10,11,6

>  <m_Rgroups>  (985)
H,H,H

$$$$

     RDKit          2D

 13 13  0  0  0  0  0  0  0  0999 V2000
   21.4369  -12.7496    0.0000 O   0  0  0  0  0  0  0  0  0  0  0  0
   20.0872  -13.5315    0.0000 C   0  0  0  0  0  0  0  0  0  0  0  0
   22.7890  -13.5277    0.0000 C   0  0  0  0  0  0  0  0  0  0  0  0
   20.4930  -15.0375    0.0000 C   0  0  0  0  0  0  0  0  0  0  0  0
   22.3874  -15.0349    0.0000 C   0  0  0  0  0  0  0  0  0  0  0  0
   20.4953  -16.5974    0.0000 O   0  0  0  0  0  0  0  0  0  0  0  0
   22.3897  -16.5948    0.0000 O   0  0  0  0  0  0  0  0  0  0  0  0
   19.8064  -11.9160    0.0000 C   0  0  0  0  0  0  0  0  0  0  0  0
   22.7867  -11.5779    0.0000 R#  0  0  0  0  0  0  0  0  0  0  0  0
   18.9149  -11.2474    0.0000 O   0  0  0  0  0  0  0  0  0  0  0  0
   17.3550  -10.9551    0.0000 R#  0  0  0  0  0  0  0  0  0  0  0  0
   21.8213  -17.6449    0.0000 R#  0  0  0  0  0  0  0  0  0  0  0  0
   23.7418  -17.3728    0.0000 C   0  0  0  0  0  0  0  0  0  0  0  0
  1  2  1  0
  1  3  1  0
  2  4  1  0
  2  8  1  1
  3  5  1  0
  3  9  1  1
  4  5  1  0
  4  6  1  6
  5  7  1  6
  6 12  1  0
  8 10  1  0
 10 11  1  0
  7 13  1  0
M  RGP  3   9   1  11   2  12   3
V    9 *
V   11 *
V   12 *
A    9
R3
A   11
R1
A   12
R2
M  END
>  <symbol>  (986)
mR

>  <m_abbr>  (986)
mR

>  <m_type>  (986)
rna

>  <m_subtype>  (986)
natural

>  <m_RgroupIdx>  (986)
10,11,8

>  <m_Rgroups>  (986)
H,H,H

$$$$

     RDKit          2D

 10 10  0  0  0  0  0  0  0  0999 V2000
   18.3560  -12.3240    0.0000 N   0  0  0  0  0  0  0  0  0  0  0  0
   17.0050  -11.5440    0.0000 C   0  0  0  0  0  0  0  0  0  0  0  0
   17.0050   -9.9840    0.0000 C   0  0  0  0  0  0  0  0  0  0  0  0
   18.3560   -9.2040    0.0000 C   0  0  0  0  0  0  0  0  0  0  0  0
   19.7070   -9.9840    0.0000 N   0  0  0  0  0  0  0  0  0  0  0  0
   19.7070  -11.5440    0.0000 C   0  0  0  0  0  0  0  0  0  0  0  0
   18.3560   -7.6440    0.0000 O   0  0  0  0  0  0  0  0  0  0  0  0
   15.6540   -9.2040    0.0000 F   0  0  0  0  0  0  0  0  0  0  0  0
   21.0580  -12.3240    0.0000 O   0  0  0  0  0  0  0  0  0  0  0  0
   18.3560  -13.8840    0.0000 R#  0  0  0  0  0  0  0  0  0  0  0  0
  1  2  1  0
  2  3  2  0
  3  4  1  0
  4  5  1  0
  5  6  1  0
  6  1  1  0
  4  7  2  0
  3  8  1  0
  6  9  2  0
  1 10  1  0
M  RGP  1  10   1
V   10 *
A   10
R1
M  END
>  <symbol>  (987)
5fU

>  <m_abbr>  (987)
5fU

>  <m_type>  (987)
rna

>  <m_subtype>  (987)
natural

>  <m_RgroupIdx>  (987)
9

>  <m_Rgroups>  (987)
H

$$$$

     RDKit          2D

 10 10  0  0  0  0  0  0  0  0999 V2000
   18.3560  -12.3240    0.0000 N   0  0  0  0  0  0  0  0  0  0  0  0
   17.0050  -11.5440    0.0000 C   0  0  0  0  0  0  0  0  0  0  0  0
   17.0050   -9.9840    0.0000 C   0  0  0  0  0  0  0  0  0  0  0  0
   18.3560   -9.2040    0.0000 C   0  0  0  0  0  0  0  0  0  0  0  0
   19.7070   -9.9840    0.0000 N   0  0  0  0  0  0  0  0  0  0  0  0
   19.7070  -11.5440    0.0000 C   0  0  0  0  0  0  0  0  0  0  0  0
   18.3560   -7.6440    0.0000 O   0  0  0  0  0  0  0  0  0  0  0  0
   15.6540   -9.2040    0.0000 I   0  0  0  0  0  0  0  0  0  0  0  0
   21.0580  -12.3240    0.0000 O   0  0  0  0  0  0  0  0  0  0  0  0
   18.3560  -13.8840    0.0000 R#  0  0  0  0  0  0  0  0  0  0  0  0
  1  2  1  0
  2  3  2  0
  3  4  1  0
  4  5  1  0
  5  6  1  0
  6  1  1  0
  4  7  2  0
  3  8  1  0
  6  9  2  0
  1 10  1  0
M  RGP  1  10   1
V   10 *
A   10
R1
M  END
>  <symbol>  (988)
5iU

>  <m_abbr>  (988)
5iU

>  <m_type>  (988)
rna

>  <m_subtype>  (988)
natural

>  <m_RgroupIdx>  (988)
9

>  <m_Rgroups>  (988)
H

$$$$

     RDKit          2D

 12 13  0  0  0  0  0  0  0  0999 V2000
   18.7209  -12.7400    0.0000 C   0  0  0  0  0  0  0  0  0  0  0  0
   20.0720  -13.5200    0.0000 C   0  0  0  0  0  0  0  0  0  0  0  0
   20.0720  -15.0800    0.0000 C   0  0  0  0  0  0  0  0  0  0  0  0
   18.7209  -15.8600    0.0000 N   0  0  0  0  0  0  0  0  0  0  0  0
   17.3701  -15.0800    0.0000 C   0  0  0  0  0  0  0  0  0  0  0  0
   17.3701  -13.5200    0.0000 N   0  0  0  0  0  0  0  0  0  0  0  0
   21.4231  -15.8600    0.0000 N   0  0  0  0  0  0  0  0  0  0  0  0
   22.7739  -15.0800    0.0000 C   0  0  0  0  0  0  0  0  0  0  0  0
   22.7739  -13.5200    0.0000 N   0  0  0  0  0  0  0  0  0  0  0  0
   18.7209  -11.1800    0.0000 N   0  0  0  0  0  0  0  0  0  0  0  0
   21.4231  -17.4200    0.0000 R#  0  0  0  0  0  0  0  0  0  0  0  0
   17.3699  -10.4000    0.0000 C   0  0  0  0  0  0  0  0  0  0  0  0
  1 10  1  0
  1  6  2  0
  1  2  1  0
  9  2  1  0
  2  3  2  0
  7  3  1  0
  3  4  1  0
  4  5  2  0
  5  6  1  0
  7  8  1  0
  7 11  1  0
  8  9  2  0
 10 12  1  0
M  RGP  1  11   1
V   11 *
A   11
R1
M  END
>  <symbol>  (989)
meA

>  <m_abbr>  (989)
meA

>  <m_type>  (989)
rna

>  <m_subtype>  (989)
natural

>  <m_RgroupIdx>  (989)
10

>  <m_Rgroups>  (989)
H

$$$$
